MODEL 1
REMARK VINA RESULT:      -6.0      0.000      0.000
REMARK  15 active torsions:
REMARK  status: ('A' for Active; 'I' for Inactive)
REMARK    1  A    between atoms: C3_3  and  O3_8 
REMARK    2  A    between atoms: C4_4  and  O4_9 
REMARK    3  A    between atoms: C5_5  and  C6_6 
REMARK    4  A    between atoms: O3_8  and  C2_38 
REMARK    5  A    between atoms: O4_9  and  C1_12 
REMARK    6  A    between atoms: C2_13  and  N2_20 
REMARK    7  A    between atoms: C3_14  and  O3_21 
REMARK    8  A    between atoms: C5_16  and  C6_17 
REMARK       I    between atoms: C7_18  and  N2_20 
REMARK    9  A    between atoms: O3_21  and  C1_26 
REMARK   10  A    between atoms: C5_30  and  C6_31 
REMARK   11  A    between atoms: C1_37  and  C2_38 
REMARK   12  A    between atoms: C5_41  and  N5_48 
REMARK   13  A    between atoms: C6_42  and  C7_43 
REMARK   14  A    between atoms: C7_43  and  C8_44 
REMARK   15  A    between atoms: C8_44  and  C9_45 
REMARK       I    between atoms: C10_46  and  N5_48 
ROOT
HETATM    1  C1  GAL C   1     260.216 270.683 213.365  0.50 31.77     0.178 C 
HETATM    2  C2  GAL C   1     260.894 271.878 212.722  0.50 31.15     0.211 C 
HETATM    3  C3  GAL C   1     260.049 273.148 212.836  0.50 28.21     0.181 C 
HETATM    4  C4  GAL C   1     258.646 272.875 212.301  0.50 27.04     0.177 C 
HETATM    5  C5  GAL C   1     258.017 271.680 213.005  0.50 27.54     0.178 C 
HETATM    6  O2  GAL C   1     262.160 272.115 213.312  0.50 33.53    -0.218 OA
HETATM    7  O5  GAL C   1     258.870 270.543 212.941  0.50 31.32    -0.349 OA
ENDROOT
BRANCH   3   8
HETATM    8  O3  GAL C   1     260.717 274.172 212.132  0.50 27.69    -0.324 OA
BRANCH   8   9
HETATM    9  C2  SIA C   4     260.881 275.469 212.692  0.50 28.46     0.271 C 
HETATM   10  C3  SIA C   4     259.881 275.709 213.797  0.50 27.81     0.103 C 
HETATM   11  C4  SIA C   4     259.782 277.142 214.249  0.50 26.33     0.182 C 
HETATM   12  C5  SIA C   4     259.874 278.201 213.161  0.50 25.92     0.166 C 
HETATM   13  O4  SIA C   4     258.650 277.359 215.059  0.50 27.44    -0.221 OA
HETATM   14  C6  SIA C   4     260.925 277.826 212.128  0.50 24.60     0.176 C 
HETATM   15  O6  SIA C   4     260.797 276.483 211.691  0.50 29.11    -0.325 OA
BRANCH   9  16
HETATM   16  C1  SIA C   4     262.295 275.490 213.246  0.50 24.27     0.240 C 
HETATM   17  O1A SIA C   4     263.232 275.530 212.410  0.50 28.17    -0.644 OA
HETATM   18  O1B SIA C   4     262.503 275.450 214.465  0.50 21.53    -0.644 OA
ENDBRANCH   9  16
BRANCH  12  19
HETATM   19  N5  SIA C   4     260.218 279.465 213.811  0.50 25.74    -0.235 NA
HETATM   20  C10 SIA C   4     259.453 280.548 213.712  0.50 23.32     0.252 C 
HETATM   21  O10 SIA C   4     258.404 280.453 213.036  0.50 26.30    -0.271 OA
HETATM   22  C11 SIA C   4     260.033 281.730 214.500  0.50 20.27     0.100 C 
ENDBRANCH  12  19
BRANCH  14  23
HETATM   23  C7  SIA C   4     260.820 278.743 210.898  0.50 24.96     0.214 C 
HETATM   24  O7  SIA C   4     260.543 277.931 209.760  0.50 23.41    -0.218 OA
BRANCH  23  25
HETATM   25  C8  SIA C   4     262.147 279.484 210.754  0.50 24.91     0.218 C 
HETATM   26  O8  SIA C   4     263.014 279.179 211.836  0.50 25.01    -0.218 OA
BRANCH  25  27
HETATM   27  C9  SIA C   4     261.926 280.987 210.695  0.50 23.13     0.218 C 
HETATM   28  O9  SIA C   4     261.916 281.464 209.369  0.50 25.78    -0.218 OA
ENDBRANCH  25  27
ENDBRANCH  23  25
ENDBRANCH  14  23
ENDBRANCH   8   9
ENDBRANCH   3   8
BRANCH   5  29
HETATM   29  C6  GAL C   1     256.690 271.295 212.347  0.50 27.50     0.214 C 
HETATM   30  O6  GAL C   1     256.044 270.248 213.042  0.50 28.29    -0.218 OA
ENDBRANCH   5  29
BRANCH   4  31
HETATM   31  O4  GAL C   1     258.657 272.681 210.905  0.50 28.56    -0.327 OA
BRANCH  31  32
HETATM   32  C1  NGA C   2     258.591 273.843 210.068  0.50 27.07     0.262 C 
HETATM   33  C2  NGA C   2     257.879 273.481 208.751  0.50 26.50     0.192 C 
HETATM   34  C3  NGA C   2     257.708 274.722 207.886  0.50 25.00     0.178 C 
HETATM   35  C4  NGA C   2     256.980 275.810 208.693  0.50 27.34     0.211 C 
HETATM   36  C5  NGA C   2     257.772 276.049 209.972  0.50 25.92     0.184 C 
HETATM   37  O4  NGA C   2     255.692 275.307 208.996  0.50 27.11    -0.218 OA
HETATM   38  O5  NGA C   2     257.805 274.844 210.738  0.50 26.89    -0.327 OA
BRANCH  33  39
HETATM   39  N2  NGA C   2     258.651 272.447 208.118  0.50 29.00    -0.232 NA
HETATM   40  C7  NGA C   2     258.161 271.315 207.608  0.50 29.40     0.252 C 
HETATM   41  C8  NGA C   2     259.281 270.399 207.071  0.50 27.66     0.100 C 
HETATM   42  O7  NGA C   2     256.924 271.147 207.664  0.50 31.71    -0.271 OA
ENDBRANCH  33  39
BRANCH  34  43
HETATM   43  O3  NGA C   2     256.865 274.406 206.764  0.50 23.22    -0.327 OA
BRANCH  43  44
HETATM   44  C1  GAL C   3     257.471 274.751 205.519  0.50 18.08     0.270 C 
HETATM   45  C2  GAL C   3     256.945 273.947 204.342  0.50 14.48     0.241 C 
HETATM   46  O2  GAL C   3     257.042 272.567 204.624  0.50 18.21    -0.215 OA
HETATM   47  C3  GAL C   3     257.620 274.340 203.044  0.50 13.31     0.220 C 
HETATM   48  C4  GAL C   3     257.663 275.860 202.901  0.50 13.24     0.215 C 
HETATM   49  O3  GAL C   3     257.033 273.749 201.883  0.50 14.16    -0.218 OA
HETATM   50  C5  GAL C   3     258.140 276.562 204.175  0.50 14.42     0.184 C 
HETATM   51  O4  GAL C   3     256.383 276.364 202.603  0.50 12.87    -0.218 OA
HETATM   52  O5  GAL C   3     257.288 276.152 205.255  0.50 15.88    -0.326 OA
BRANCH  50  53
HETATM   53  C6  GAL C   3     257.949 278.069 204.046  0.50 14.56     0.215 C 
HETATM   54  O6  GAL C   3     258.063 278.740 205.266  0.50 15.78    -0.218 OA
ENDBRANCH  50  53
ENDBRANCH  43  44
ENDBRANCH  34  43
BRANCH  36  55
HETATM   55  C6  NGA C   2     257.213 277.208 210.762  0.50 26.88     0.215 C 
HETATM   56  O6  NGA C   2     256.801 276.751 212.039  0.50 27.96    -0.218 OA
ENDBRANCH  36  55
ENDBRANCH  31  32
ENDBRANCH   4  31
TORSDOF 15
ENDMDL
MODEL 2
REMARK VINA RESULT:      -5.9      2.028      7.538
REMARK  15 active torsions:
REMARK  status: ('A' for Active; 'I' for Inactive)
REMARK    1  A    between atoms: C3_3  and  O3_8 
REMARK    2  A    between atoms: C4_4  and  O4_9 
REMARK    3  A    between atoms: C5_5  and  C6_6 
REMARK    4  A    between atoms: O3_8  and  C2_38 
REMARK    5  A    between atoms: O4_9  and  C1_12 
REMARK    6  A    between atoms: C2_13  and  N2_20 
REMARK    7  A    between atoms: C3_14  and  O3_21 
REMARK    8  A    between atoms: C5_16  and  C6_17 
REMARK       I    between atoms: C7_18  and  N2_20 
REMARK    9  A    between atoms: O3_21  and  C1_26 
REMARK   10  A    between atoms: C5_30  and  C6_31 
REMARK   11  A    between atoms: C1_37  and  C2_38 
REMARK   12  A    between atoms: C5_41  and  N5_48 
REMARK   13  A    between atoms: C6_42  and  C7_43 
REMARK   14  A    between atoms: C7_43  and  C8_44 
REMARK   15  A    between atoms: C8_44  and  C9_45 
REMARK       I    between atoms: C10_46  and  N5_48 
ROOT
HETATM    1  C1  GAL C   1     257.460 271.279 213.388  0.50 31.77     0.178 C 
HETATM    2  C2  GAL C   1     257.017 272.390 212.456  0.50 31.15     0.211 C 
HETATM    3  C3  GAL C   1     257.965 272.557 211.267  0.50 28.21     0.181 C 
HETATM    4  C4  GAL C   1     259.395 272.713 211.774  0.50 27.04     0.177 C 
HETATM    5  C5  GAL C   1     259.781 271.552 212.682  0.50 27.54     0.178 C 
HETATM    6  O2  GAL C   1     255.708 272.147 211.971  0.50 33.53    -0.218 OA
HETATM    7  O5  GAL C   1     258.833 271.386 213.729  0.50 31.32    -0.349 OA
ENDROOT
BRANCH   3   8
HETATM    8  O3  GAL C   1     257.522 273.667 210.518  0.50 27.69    -0.324 OA
BRANCH   8   9
HETATM    9  C2  SIA C   4     257.159 273.539 209.149  0.50 28.46     0.271 C 
HETATM   10  C3  SIA C   4     257.390 272.130 208.661  0.50 27.81     0.103 C 
HETATM   11  C4  SIA C   4     257.313 271.967 207.165  0.50 26.33     0.182 C 
HETATM   12  C5  SIA C   4     257.908 273.091 206.332  0.50 25.92     0.166 C 
HETATM   13  O4  SIA C   4     257.815 270.718 206.748  0.50 27.44    -0.221 OA
HETATM   14  C6  SIA C   4     257.585 274.446 206.942  0.50 24.60     0.176 C 
HETATM   15  O6  SIA C   4     257.849 274.487 208.335  0.50 29.11    -0.325 OA
BRANCH   9  16
HETATM   16  C1  SIA C   4     255.680 273.880 209.094  0.50 24.27     0.240 C 
HETATM   17  O1A SIA C   4     254.892 272.951 208.786  0.50 28.17    -0.644 OA
HETATM   18  O1B SIA C   4     255.282 275.029 209.324  0.50 21.53    -0.644 OA
ENDBRANCH   9  16
BRANCH  12  19
HETATM   19  N5  SIA C   4     257.342 272.984 204.988  0.50 25.74    -0.235 NA
HETATM   20  C10 SIA C   4     258.096 272.769 203.913  0.50 23.32     0.252 C 
HETATM   21  O10 SIA C   4     259.330 272.654 204.088  0.50 26.30    -0.271 OA
HETATM   22  C11 SIA C   4     257.254 272.682 202.634  0.50 20.27     0.100 C 
ENDBRANCH  12  19
BRANCH  14  23
HETATM   23  C7  SIA C   4     258.414 275.550 206.265  0.50 24.96     0.214 C 
HETATM   24  O7  SIA C   4     259.132 276.253 207.277  0.50 23.41    -0.218 OA
BRANCH  23  25
HETATM   25  C8  SIA C   4     257.448 276.467 205.518  0.50 24.91     0.218 C 
HETATM   26  O8  SIA C   4     257.923 277.804 205.515  0.50 25.01    -0.218 OA
BRANCH  25  27
HETATM   27  C9  SIA C   4     256.065 276.425 206.147  0.50 23.13     0.218 C 
HETATM   28  O9  SIA C   4     255.668 277.691 206.623  0.50 25.78    -0.218 OA
ENDBRANCH  25  27
ENDBRANCH  23  25
ENDBRANCH  14  23
ENDBRANCH   8   9
ENDBRANCH   3   8
BRANCH   5  29
HETATM   29  C6  GAL C   1     261.144 271.798 213.334  0.50 27.50     0.214 C 
HETATM   30  O6  GAL C   1     261.316 271.021 214.501  0.50 28.29    -0.218 OA
ENDBRANCH   5  29
BRANCH   4  31
HETATM   31  O4  GAL C   1     259.575 273.944 212.437  0.50 28.56    -0.327 OA
BRANCH  31  32
HETATM   32  C1  NGA C   2     260.168 275.020 211.700  0.50 27.07     0.262 C 
HETATM   33  C2  NGA C   2     259.758 276.360 212.338  0.50 26.50     0.192 C 
HETATM   34  C3  NGA C   2     260.457 277.515 211.634  0.50 25.00     0.178 C 
HETATM   35  C4  NGA C   2     261.976 277.274 211.644  0.50 27.34     0.211 C 
HETATM   36  C5  NGA C   2     262.236 275.914 211.012  0.50 25.92     0.184 C 
HETATM   37  O4  NGA C   2     262.385 277.277 212.999  0.50 27.11    -0.218 OA
HETATM   38  O5  NGA C   2     261.599 274.901 211.794  0.50 26.89    -0.327 OA
BRANCH  33  39
HETATM   39  N2  NGA C   2     258.325 276.440 212.279  0.50 29.00    -0.232 NA
HETATM   40  C7  NGA C   2     257.513 276.589 213.328  0.50 29.40     0.252 C 
HETATM   41  C8  NGA C   2     256.028 276.563 212.908  0.50 27.66     0.100 C 
HETATM   42  O7  NGA C   2     258.042 276.689 214.456  0.50 31.71    -0.271 OA
ENDBRANCH  33  39
BRANCH  34  43
HETATM   43  O3  NGA C   2     260.226 278.729 212.369  0.50 23.22    -0.327 OA
BRANCH  43  44
HETATM   44  C1  GAL C   3     259.652 279.752 211.555  0.50 18.08     0.270 C 
HETATM   45  C2  GAL C   3     260.628 280.353 210.557  0.50 14.48     0.241 C 
HETATM   46  O2  GAL C   3     261.792 280.788 211.228  0.50 18.21    -0.215 OA
HETATM   47  C3  GAL C   3     259.981 281.439 209.721  0.50 13.31     0.220 C 
HETATM   48  C4  GAL C   3     258.625 280.974 209.194  0.50 13.24     0.215 C 
HETATM   49  O3  GAL C   3     260.797 281.907 208.645  0.50 14.16    -0.218 OA
HETATM   50  C5  GAL C   3     257.762 280.319 210.275  0.50 14.42     0.184 C 
HETATM   51  O4  GAL C   3     258.794 280.025 208.168  0.50 12.87    -0.218 OA
HETATM   52  O5  GAL C   3     258.510 279.237 210.849  0.50 15.88    -0.326 OA
BRANCH  50  53
HETATM   53  C6  GAL C   3     256.528 279.681 209.647  0.50 14.56     0.215 C 
HETATM   54  O6  GAL C   3     256.479 278.296 209.826  0.50 15.78    -0.218 OA
ENDBRANCH  50  53
ENDBRANCH  43  44
ENDBRANCH  34  43
BRANCH  36  55
HETATM   55  C6  NGA C   2     263.714 275.653 210.844  0.50 26.88     0.215 C 
HETATM   56  O6  NGA C   2     263.941 275.015 209.599  0.50 27.96    -0.218 OA
ENDBRANCH  36  55
ENDBRANCH  31  32
ENDBRANCH   4  31
TORSDOF 15
ENDMDL
MODEL 3
REMARK VINA RESULT:      -5.8      3.069     10.612
REMARK  15 active torsions:
REMARK  status: ('A' for Active; 'I' for Inactive)
REMARK    1  A    between atoms: C3_3  and  O3_8 
REMARK    2  A    between atoms: C4_4  and  O4_9 
REMARK    3  A    between atoms: C5_5  and  C6_6 
REMARK    4  A    between atoms: O3_8  and  C2_38 
REMARK    5  A    between atoms: O4_9  and  C1_12 
REMARK    6  A    between atoms: C2_13  and  N2_20 
REMARK    7  A    between atoms: C3_14  and  O3_21 
REMARK    8  A    between atoms: C5_16  and  C6_17 
REMARK       I    between atoms: C7_18  and  N2_20 
REMARK    9  A    between atoms: O3_21  and  C1_26 
REMARK   10  A    between atoms: C5_30  and  C6_31 
REMARK   11  A    between atoms: C1_37  and  C2_38 
REMARK   12  A    between atoms: C5_41  and  N5_48 
REMARK   13  A    between atoms: C6_42  and  C7_43 
REMARK   14  A    between atoms: C7_43  and  C8_44 
REMARK   15  A    between atoms: C8_44  and  C9_45 
REMARK       I    between atoms: C10_46  and  N5_48 
ROOT
HETATM    1  C1  GAL C   1     257.925 276.338 206.766  0.50 31.77     0.178 C 
HETATM    2  C2  GAL C   1     258.457 274.937 206.536  0.50 31.15     0.211 C 
HETATM    3  C3  GAL C   1     257.652 273.883 207.299  0.50 28.21     0.181 C 
HETATM    4  C4  GAL C   1     257.567 274.275 208.770  0.50 27.04     0.177 C 
HETATM    5  C5  GAL C   1     257.003 275.681 208.929  0.50 27.54     0.178 C 
HETATM    6  O2  GAL C   1     258.445 274.615 205.156  0.50 33.53    -0.218 OA
HETATM    7  O5  GAL C   1     257.734 276.615 208.144  0.50 31.32    -0.349 OA
ENDROOT
BRANCH   3   8
HETATM    8  O3  GAL C   1     258.278 272.635 207.096  0.50 27.69    -0.324 OA
BRANCH   8   9
HETATM    9  C2  SIA C   4     257.544 271.503 206.647  0.50 28.46     0.271 C 
HETATM   10  C3  SIA C   4     257.538 271.430 205.140  0.50 27.81     0.103 C 
HETATM   11  C4  SIA C   4     256.554 270.444 204.567  0.50 26.33     0.182 C 
HETATM   12  C5  SIA C   4     255.207 270.350 205.266  0.50 25.92     0.166 C 
HETATM   13  O4  SIA C   4     256.382 270.621 203.180  0.50 27.44    -0.221 OA
HETATM   14  C6  SIA C   4     255.374 270.430 206.776  0.50 24.60     0.176 C 
HETATM   15  O6  SIA C   4     256.216 271.502 207.169  0.50 29.11    -0.325 OA
BRANCH   9  16
HETATM   16  C1  SIA C   4     258.265 270.301 207.231  0.50 24.27     0.240 C 
HETATM   17  O1A SIA C   4     259.226 269.837 206.568  0.50 28.17    -0.644 OA
HETATM   18  O1B SIA C   4     257.902 269.798 208.302  0.50 21.53    -0.644 OA
ENDBRANCH   9  16
BRANCH  12  19
HETATM   19  N5  SIA C   4     254.604 269.075 204.882  0.50 25.74    -0.235 NA
HETATM   20  C10 SIA C   4     253.475 269.003 204.183  0.50 23.32     0.252 C 
HETATM   21  O10 SIA C   4     252.933 270.081 203.852  0.50 26.30    -0.271 OA
HETATM   22  C11 SIA C   4     253.070 267.551 203.900  0.50 20.27     0.100 C 
ENDBRANCH  12  19
BRANCH  14  23
HETATM   23  C7  SIA C   4     254.009 270.617 207.458  0.50 24.96     0.214 C 
HETATM   24  O7  SIA C   4     254.154 271.594 208.486  0.50 23.41    -0.218 OA
BRANCH  23  25
HETATM   25  C8  SIA C   4     253.580 269.265 208.021  0.50 24.91     0.218 C 
HETATM   26  O8  SIA C   4     252.192 269.049 207.810  0.50 25.01    -0.218 OA
BRANCH  25  27
HETATM   27  C9  SIA C   4     253.883 269.175 209.508  0.50 23.13     0.218 C 
HETATM   28  O9  SIA C   4     254.946 268.289 209.773  0.50 25.78    -0.218 OA
ENDBRANCH  25  27
ENDBRANCH  23  25
ENDBRANCH  14  23
ENDBRANCH   8   9
ENDBRANCH   3   8
BRANCH   5  29
HETATM   29  C6  GAL C   1     257.086 276.142 210.386  0.50 27.50     0.214 C 
HETATM   30  O6  GAL C   1     257.273 277.539 210.484  0.50 28.29    -0.218 OA
ENDBRANCH   5  29
BRANCH   4  31
HETATM   31  O4  GAL C   1     258.821 274.168 209.405  0.50 28.56    -0.327 OA
BRANCH  31  32
HETATM   32  C1  NGA C   2     258.965 273.190 210.442  0.50 27.07     0.262 C 
HETATM   33  C2  NGA C   2     259.409 273.887 211.741  0.50 26.50     0.192 C 
HETATM   34  C3  NGA C   2     259.471 272.884 212.884  0.50 25.00     0.178 C 
HETATM   35  C4  NGA C   2     258.116 272.168 213.009  0.50 27.34     0.211 C 
HETATM   36  C5  NGA C   2     257.790 271.549 211.657  0.50 25.92     0.184 C 
HETATM   37  O4  NGA C   2     257.158 273.155 213.346  0.50 27.11    -0.218 OA
HETATM   38  O5  NGA C   2     257.681 272.585 210.678  0.50 26.89    -0.327 OA
BRANCH  33  39
HETATM   39  N2  NGA C   2     260.668 274.526 211.474  0.50 29.00    -0.232 NA
HETATM   40  C7  NGA C   2     260.964 275.799 211.744  0.50 29.40     0.252 C 
HETATM   41  C8  NGA C   2     262.382 276.170 211.258  0.50 27.66     0.100 C 
HETATM   42  O7  NGA C   2     260.082 276.491 212.295  0.50 31.71    -0.271 OA
ENDBRANCH  33  39
BRANCH  34  43
HETATM   43  O3  NGA C   2     259.684 273.586 214.121  0.50 23.22    -0.327 OA
BRANCH  43  44
HETATM   44  C1  GAL C   3     260.953 273.285 214.701  0.50 18.08     0.270 C 
HETATM   45  C2  GAL C   3     261.364 274.251 215.800  0.50 14.48     0.241 C 
HETATM   46  O2  GAL C   3     261.290 275.578 215.324  0.50 18.21    -0.215 OA
HETATM   47  C3  GAL C   3     262.718 273.901 216.382  0.50 13.31     0.220 C 
HETATM   48  C4  GAL C   3     262.802 272.406 216.684  0.50 13.24     0.215 C 
HETATM   49  O3  GAL C   3     263.067 274.661 217.540  0.50 14.16    -0.218 OA
HETATM   50  C5  GAL C   3     262.293 271.539 215.529  0.50 14.42     0.184 C 
HETATM   51  O4  GAL C   3     262.028 272.087 217.815  0.50 12.87    -0.218 OA
HETATM   52  O5  GAL C   3     260.951 271.946 215.224  0.50 15.88    -0.326 OA
BRANCH  50  53
HETATM   53  C6  GAL C   3     262.192 270.083 215.971  0.50 14.56     0.215 C 
HETATM   54  O6  GAL C   3     263.432 269.442 216.024  0.50 15.78    -0.218 OA
ENDBRANCH  50  53
ENDBRANCH  43  44
ENDBRANCH  34  43
BRANCH  36  55
HETATM   55  C6  NGA C   2     256.544 270.699 211.722  0.50 26.88     0.215 C 
HETATM   56  O6  NGA C   2     256.375 270.212 213.042  0.50 27.96    -0.218 OA
ENDBRANCH  36  55
ENDBRANCH  31  32
ENDBRANCH   4  31
TORSDOF 15
ENDMDL
MODEL 4
REMARK VINA RESULT:      -5.7     23.420     28.479
REMARK  15 active torsions:
REMARK  status: ('A' for Active; 'I' for Inactive)
REMARK    1  A    between atoms: C3_3  and  O3_8 
REMARK    2  A    between atoms: C4_4  and  O4_9 
REMARK    3  A    between atoms: C5_5  and  C6_6 
REMARK    4  A    between atoms: O3_8  and  C2_38 
REMARK    5  A    between atoms: O4_9  and  C1_12 
REMARK    6  A    between atoms: C2_13  and  N2_20 
REMARK    7  A    between atoms: C3_14  and  O3_21 
REMARK    8  A    between atoms: C5_16  and  C6_17 
REMARK       I    between atoms: C7_18  and  N2_20 
REMARK    9  A    between atoms: O3_21  and  C1_26 
REMARK   10  A    between atoms: C5_30  and  C6_31 
REMARK   11  A    between atoms: C1_37  and  C2_38 
REMARK   12  A    between atoms: C5_41  and  N5_48 
REMARK   13  A    between atoms: C6_42  and  C7_43 
REMARK   14  A    between atoms: C7_43  and  C8_44 
REMARK   15  A    between atoms: C8_44  and  C9_45 
REMARK       I    between atoms: C10_46  and  N5_48 
ROOT
HETATM    1  C1  GAL C   1     272.923 264.578 188.076  0.50 31.77     0.178 C 
HETATM    2  C2  GAL C   1     273.240 263.654 189.236  0.50 31.15     0.211 C 
HETATM    3  C3  GAL C   1     272.887 262.198 188.925  0.50 28.21     0.181 C 
HETATM    4  C4  GAL C   1     271.440 262.116 188.450  0.50 27.04     0.177 C 
HETATM    5  C5  GAL C   1     271.198 263.049 187.271  0.50 27.54     0.178 C 
HETATM    6  O2  GAL C   1     274.612 263.731 189.579  0.50 33.53    -0.218 OA
HETATM    7  O5  GAL C   1     271.610 264.376 187.578  0.50 31.32    -0.349 OA
ENDROOT
BRANCH   3   8
HETATM    8  O3  GAL C   1     273.129 261.439 190.089  0.50 27.69    -0.324 OA
BRANCH   8   9
HETATM    9  C2  SIA C   4     273.534 260.078 190.015  0.50 28.46     0.271 C 
HETATM   10  C3  SIA C   4     273.584 259.609 188.582  0.50 27.81     0.103 C 
HETATM   11  C4  SIA C   4     273.717 258.118 188.417  0.50 26.33     0.182 C 
HETATM   12  C5  SIA C   4     272.933 257.258 189.397  0.50 25.92     0.166 C 
HETATM   13  O4  SIA C   4     273.468 257.712 187.091  0.50 27.44    -0.221 OA
HETATM   14  C6  SIA C   4     272.982 257.851 190.796  0.50 24.60     0.176 C 
HETATM   15  O6  SIA C   4     272.691 259.239 190.804  0.50 29.11    -0.325 OA
BRANCH   9  16
HETATM   16  C1  SIA C   4     274.922 260.040 190.631  0.50 24.27     0.240 C 
HETATM   17  O1A SIA C   4     275.894 259.972 189.839  0.50 28.17    -0.644 OA
HETATM   18  O1B SIA C   4     275.075 260.055 191.859  0.50 21.53    -0.644 OA
ENDBRANCH   9  16
BRANCH  12  19
HETATM   19  N5  SIA C   4     273.533 255.924 189.382  0.50 25.74    -0.235 NA
HETATM   20  C10 SIA C   4     272.851 254.841 189.020  0.50 23.32     0.252 C 
HETATM   21  O10 SIA C   4     271.657 254.999 188.680  0.50 26.30    -0.271 OA
HETATM   22  C11 SIA C   4     273.717 253.576 189.077  0.50 20.27     0.100 C 
ENDBRANCH  12  19
BRANCH  14  23
HETATM   23  C7  SIA C   4     271.970 257.144 191.714  0.50 24.96     0.214 C 
HETATM   24  O7  SIA C   4     271.150 258.139 192.323  0.50 23.41    -0.218 OA
BRANCH  23  25
HETATM   25  C8  SIA C   4     272.758 256.349 192.752  0.50 24.91     0.218 C 
HETATM   26  O8  SIA C   4     272.270 256.607 194.060  0.50 25.01    -0.218 OA
BRANCH  25  27
HETATM   27  C9  SIA C   4     274.237 256.693 192.690  0.50 23.13     0.218 C 
HETATM   28  O9  SIA C   4     274.699 257.242 193.903  0.50 25.78    -0.218 OA
ENDBRANCH  25  27
ENDBRANCH  23  25
ENDBRANCH  14  23
ENDBRANCH   8   9
ENDBRANCH   3   8
BRANCH   5  29
HETATM   29  C6  GAL C   1     269.711 263.103 186.912  0.50 27.50     0.214 C 
HETATM   30  O6  GAL C   1     269.247 261.865 186.413  0.50 28.29    -0.218 OA
ENDBRANCH   5  29
BRANCH   4  31
HETATM   31  O4  GAL C   1     270.538 262.394 189.498  0.50 28.56    -0.327 OA
BRANCH  31  32
HETATM   32  C1  NGA C   2     269.821 261.295 190.073  0.50 27.07     0.262 C 
HETATM   33  C2  NGA C   2     268.355 261.707 190.302  0.50 26.50     0.192 C 
HETATM   34  C3  NGA C   2     267.549 260.524 190.819  0.50 25.00     0.178 C 
HETATM   35  C4  NGA C   2     267.705 259.339 189.852  0.50 27.34     0.211 C 
HETATM   36  C5  NGA C   2     269.194 259.055 189.699  0.50 25.92     0.184 C 
HETATM   37  O4  NGA C   2     267.147 259.739 188.614  0.50 27.11    -0.218 OA
HETATM   38  O5  NGA C   2     269.836 260.202 189.137  0.50 26.89    -0.327 OA
BRANCH  33  39
HETATM   39  N2  NGA C   2     268.362 262.829 191.200  0.50 29.00    -0.232 NA
HETATM   40  C7  NGA C   2     267.927 264.057 190.910  0.50 29.40     0.252 C 
HETATM   41  C8  NGA C   2     268.150 265.033 192.085  0.50 27.66     0.100 C 
HETATM   42  O7  NGA C   2     267.452 264.245 189.770  0.50 31.71    -0.271 OA
ENDBRANCH  33  39
BRANCH  34  43
HETATM   43  O3  NGA C   2     266.153 260.869 190.829  0.50 23.22    -0.327 OA
BRANCH  43  44
HETATM   44  C1  GAL C   3     265.513 260.495 192.048  0.50 18.08     0.270 C 
HETATM   45  C2  GAL C   3     264.002 260.382 191.933  0.50 14.48     0.241 C 
HETATM   46  O2  GAL C   3     263.473 261.573 191.391  0.50 18.21    -0.215 OA
HETATM   47  C3  GAL C   3     263.363 259.991 193.250  0.50 13.31     0.220 C 
HETATM   48  C4  GAL C   3     264.115 258.822 193.885  0.50 13.24     0.215 C 
HETATM   49  O3  GAL C   3     261.970 259.690 193.153  0.50 14.16    -0.218 OA
HETATM   50  C5  GAL C   3     265.633 259.019 193.876  0.50 14.42     0.184 C 
HETATM   51  O4  GAL C   3     263.848 257.628 193.188  0.50 12.87    -0.218 OA
HETATM   52  O5  GAL C   3     266.046 259.246 192.521  0.50 15.88    -0.326 OA
BRANCH  50  53
HETATM   53  C6  GAL C   3     266.331 257.736 194.313  0.50 14.56     0.215 C 
HETATM   54  O6  GAL C   3     267.427 257.411 193.511  0.50 15.78    -0.218 OA
ENDBRANCH  50  53
ENDBRANCH  43  44
ENDBRANCH  34  43
BRANCH  36  55
HETATM   55  C6  NGA C   2     269.440 257.811 188.880  0.50 26.88     0.215 C 
HETATM   56  O6  NGA C   2     268.836 256.700 189.520  0.50 27.96    -0.218 OA
ENDBRANCH  36  55
ENDBRANCH  31  32
ENDBRANCH   4  31
TORSDOF 15
ENDMDL
MODEL 5
REMARK VINA RESULT:      -5.6     28.216     32.462
REMARK  15 active torsions:
REMARK  status: ('A' for Active; 'I' for Inactive)
REMARK    1  A    between atoms: C3_3  and  O3_8 
REMARK    2  A    between atoms: C4_4  and  O4_9 
REMARK    3  A    between atoms: C5_5  and  C6_6 
REMARK    4  A    between atoms: O3_8  and  C2_38 
REMARK    5  A    between atoms: O4_9  and  C1_12 
REMARK    6  A    between atoms: C2_13  and  N2_20 
REMARK    7  A    between atoms: C3_14  and  O3_21 
REMARK    8  A    between atoms: C5_16  and  C6_17 
REMARK       I    between atoms: C7_18  and  N2_20 
REMARK    9  A    between atoms: O3_21  and  C1_26 
REMARK   10  A    between atoms: C5_30  and  C6_31 
REMARK   11  A    between atoms: C1_37  and  C2_38 
REMARK   12  A    between atoms: C5_41  and  N5_48 
REMARK   13  A    between atoms: C6_42  and  C7_43 
REMARK   14  A    between atoms: C7_43  and  C8_44 
REMARK   15  A    between atoms: C8_44  and  C9_45 
REMARK       I    between atoms: C10_46  and  N5_48 
ROOT
HETATM    1  C1  GAL C   1     280.191 250.507 197.648  0.50 31.77     0.178 C 
HETATM    2  C2  GAL C   1     279.047 251.500 197.585  0.50 31.15     0.211 C 
HETATM    3  C3  GAL C   1     279.258 252.552 196.495  0.50 28.21     0.181 C 
HETATM    4  C4  GAL C   1     280.627 253.202 196.673  0.50 27.04     0.177 C 
HETATM    5  C5  GAL C   1     281.729 252.151 196.704  0.50 27.54     0.178 C 
HETATM    6  O2  GAL C   1     277.817 250.836 197.349  0.50 33.53    -0.218 OA
HETATM    7  O5  GAL C   1     281.454 251.151 197.678  0.50 31.32    -0.349 OA
ENDROOT
BRANCH   3   8
HETATM    8  O3  GAL C   1     278.195 253.476 196.578  0.50 27.69    -0.324 OA
BRANCH   8   9
HETATM    9  C2  SIA C   4     277.589 254.015 195.410  0.50 28.46     0.271 C 
HETATM   10  C3  SIA C   4     276.381 253.205 195.009  0.50 27.81     0.103 C 
HETATM   11  C4  SIA C   4     275.848 253.517 193.635  0.50 26.33     0.182 C 
HETATM   12  C5  SIA C   4     276.884 253.790 192.556  0.50 25.92     0.166 C 
HETATM   13  O4  SIA C   4     274.921 252.549 193.200  0.50 27.44    -0.221 OA
HETATM   14  C6  SIA C   4     278.033 254.621 193.106  0.50 24.60     0.176 C 
HETATM   15  O6  SIA C   4     278.524 254.115 194.336  0.50 29.11    -0.325 OA
BRANCH   9  16
HETATM   16  C1  SIA C   4     277.176 255.427 195.789  0.50 24.27     0.240 C 
HETATM   17  O1A SIA C   4     275.960 255.615 196.042  0.50 28.17    -0.644 OA
HETATM   18  O1B SIA C   4     278.004 256.346 195.823  0.50 21.53    -0.644 OA
ENDBRANCH   9  16
BRANCH  12  19
HETATM   19  N5  SIA C   4     276.207 254.501 191.472  0.50 25.74    -0.235 NA
HETATM   20  C10 SIA C   4     276.157 254.026 190.231  0.50 23.32     0.252 C 
HETATM   21  O10 SIA C   4     276.713 252.927 190.012  0.50 26.30    -0.271 OA
HETATM   22  C11 SIA C   4     275.374 254.956 189.295  0.50 20.27     0.100 C 
ENDBRANCH  12  19
BRANCH  14  23
HETATM   23  C7  SIA C   4     279.198 254.656 192.103  0.50 24.96     0.214 C 
HETATM   24  O7  SIA C   4     279.556 253.312 191.789  0.50 23.41    -0.218 OA
BRANCH  23  25
HETATM   25  C8  SIA C   4     280.353 255.411 192.756  0.50 24.91     0.218 C 
HETATM   26  O8  SIA C   4     280.726 256.535 191.974  0.50 25.01    -0.218 OA
BRANCH  25  27
HETATM   27  C9  SIA C   4     281.559 254.504 192.941  0.50 23.13     0.218 C 
HETATM   28  O9  SIA C   4     282.683 255.216 193.405  0.50 25.78    -0.218 OA
ENDBRANCH  25  27
ENDBRANCH  23  25
ENDBRANCH  14  23
ENDBRANCH   8   9
ENDBRANCH   3   8
BRANCH   5  29
HETATM   29  C6  GAL C   1     283.076 252.782 197.063  0.50 27.50     0.214 C 
HETATM   30  O6  GAL C   1     283.948 252.826 195.952  0.50 28.29    -0.218 OA
ENDBRANCH   5  29
BRANCH   4  31
HETATM   31  O4  GAL C   1     280.670 254.001 197.833  0.50 28.56    -0.327 OA
BRANCH  31  32
HETATM   32  C1  NGA C   2     280.442 255.409 197.685  0.50 27.07     0.262 C 
HETATM   33  C2  NGA C   2     280.554 256.090 199.061  0.50 26.50     0.192 C 
HETATM   34  C3  NGA C   2     280.415 257.599 198.915  0.50 25.00     0.178 C 
HETATM   35  C4  NGA C   2     281.448 258.110 197.896  0.50 27.34     0.211 C 
HETATM   36  C5  NGA C   2     281.242 257.340 196.599  0.50 25.92     0.184 C 
HETATM   37  O4  NGA C   2     282.729 257.839 198.435  0.50 27.11    -0.218 OA
HETATM   38  O5  NGA C   2     281.470 255.949 196.835  0.50 26.89    -0.327 OA
BRANCH  33  39
HETATM   39  N2  NGA C   2     279.553 255.505 199.910  0.50 29.00    -0.232 NA
HETATM   40  C7  NGA C   2     279.764 255.011 201.131  0.50 29.40     0.252 C 
HETATM   41  C8  NGA C   2     278.481 254.396 201.728  0.50 27.66     0.100 C 
HETATM   42  O7  NGA C   2     280.925 255.081 201.588  0.50 31.71    -0.271 OA
ENDBRANCH  33  39
BRANCH  34  43
HETATM   43  O3  NGA C   2     280.727 258.228 200.170  0.50 23.22    -0.327 OA
BRANCH  43  44
HETATM   44  C1  GAL C   3     280.508 259.638 200.136  0.50 18.08     0.270 C 
HETATM   45  C2  GAL C   3     279.312 260.088 200.958  0.50 14.48     0.241 C 
HETATM   46  O2  GAL C   3     278.166 259.356 200.576  0.50 18.21    -0.215 OA
HETATM   47  C3  GAL C   3     279.111 261.588 200.888  0.50 13.31     0.220 C 
HETATM   48  C4  GAL C   3     280.436 262.317 201.107  0.50 13.24     0.215 C 
HETATM   49  O3  GAL C   3     278.118 262.084 201.787  0.50 14.16    -0.218 OA
HETATM   50  C5  GAL C   3     281.581 261.726 200.281  0.50 14.42     0.184 C 
HETATM   51  O4  GAL C   3     280.820 262.245 202.459  0.50 12.87    -0.218 OA
HETATM   52  O5  GAL C   3     281.683 260.330 200.593  0.50 15.88    -0.326 OA
BRANCH  50  53
HETATM   53  C6  GAL C   3     282.908 262.344 200.706  0.50 14.56     0.215 C 
HETATM   54  O6  GAL C   3     283.915 262.185 199.752  0.50 15.78    -0.218 OA
ENDBRANCH  50  53
ENDBRANCH  43  44
ENDBRANCH  34  43
BRANCH  36  55
HETATM   55  C6  NGA C   2     282.116 257.876 195.490  0.50 26.88     0.215 C 
HETATM   56  O6  NGA C   2     281.878 259.264 195.333  0.50 27.96    -0.218 OA
ENDBRANCH  36  55
ENDBRANCH  31  32
ENDBRANCH   4  31
TORSDOF 15
ENDMDL
MODEL 6
REMARK VINA RESULT:      -5.6     25.670     28.730
REMARK  15 active torsions:
REMARK  status: ('A' for Active; 'I' for Inactive)
REMARK    1  A    between atoms: C3_3  and  O3_8 
REMARK    2  A    between atoms: C4_4  and  O4_9 
REMARK    3  A    between atoms: C5_5  and  C6_6 
REMARK    4  A    between atoms: O3_8  and  C2_38 
REMARK    5  A    between atoms: O4_9  and  C1_12 
REMARK    6  A    between atoms: C2_13  and  N2_20 
REMARK    7  A    between atoms: C3_14  and  O3_21 
REMARK    8  A    between atoms: C5_16  and  C6_17 
REMARK       I    between atoms: C7_18  and  N2_20 
REMARK    9  A    between atoms: O3_21  and  C1_26 
REMARK   10  A    between atoms: C5_30  and  C6_31 
REMARK   11  A    between atoms: C1_37  and  C2_38 
REMARK   12  A    between atoms: C5_41  and  N5_48 
REMARK   13  A    between atoms: C6_42  and  C7_43 
REMARK   14  A    between atoms: C7_43  and  C8_44 
REMARK   15  A    between atoms: C8_44  and  C9_45 
REMARK       I    between atoms: C10_46  and  N5_48 
ROOT
HETATM    1  C1  GAL C   1     282.521 268.484 205.796  0.50 31.77     0.178 C 
HETATM    2  C2  GAL C   1     282.085 267.055 205.535  0.50 31.15     0.211 C 
HETATM    3  C3  GAL C   1     283.189 266.048 205.864  0.50 28.21     0.181 C 
HETATM    4  C4  GAL C   1     284.471 266.442 205.138  0.50 27.04     0.177 C 
HETATM    5  C5  GAL C   1     284.863 267.877 205.463  0.50 27.54     0.178 C 
HETATM    6  O2  GAL C   1     280.931 266.736 206.292  0.50 33.53    -0.218 OA
HETATM    7  O5  GAL C   1     283.784 268.770 205.214  0.50 31.32    -0.349 OA
ENDROOT
BRANCH   3   8
HETATM    8  O3  GAL C   1     282.722 264.767 205.502  0.50 27.69    -0.324 OA
BRANCH   8   9
HETATM    9  C2  SIA C   4     282.927 263.639 206.344  0.50 28.46     0.271 C 
HETATM   10  C3  SIA C   4     282.275 263.846 207.689  0.50 27.81     0.103 C 
HETATM   11  C4  SIA C   4     282.680 262.845 208.740  0.50 26.33     0.182 C 
HETATM   12  C5  SIA C   4     284.139 262.419 208.739  0.50 25.92     0.166 C 
HETATM   13  O4  SIA C   4     282.280 263.248 210.029  0.50 27.44    -0.221 OA
HETATM   14  C6  SIA C   4     284.651 262.241 207.318  0.50 24.60     0.176 C 
HETATM   15  O6  SIA C   4     284.315 263.337 206.484  0.50 29.11    -0.325 OA
BRANCH   9  16
HETATM   16  C1  SIA C   4     282.278 262.474 205.617  0.50 24.27     0.240 C 
HETATM   17  O1A SIA C   4     282.484 262.389 204.381  0.50 28.17    -0.644 OA
HETATM   18  O1B SIA C   4     281.564 261.663 206.222  0.50 21.53    -0.644 OA
ENDBRANCH   9  16
BRANCH  12  19
HETATM   19  N5  SIA C   4     284.225 261.160 209.478  0.50 25.74    -0.235 NA
HETATM   20  C10 SIA C   4     285.080 260.980 210.482  0.50 23.32     0.252 C 
HETATM   21  O10 SIA C   4     285.822 261.941 210.786  0.50 26.30    -0.271 OA
HETATM   22  C11 SIA C   4     284.954 259.579 211.094  0.50 20.27     0.100 C 
ENDBRANCH  12  19
BRANCH  14  23
HETATM   23  C7  SIA C   4     286.181 262.087 207.315  0.50 24.96     0.214 C 
HETATM   24  O7  SIA C   4     286.744 263.244 206.700  0.50 23.41    -0.218 OA
BRANCH  23  25
HETATM   25  C8  SIA C   4     286.520 260.816 206.541  0.50 24.91     0.218 C 
HETATM   26  O8  SIA C   4     285.417 260.399 205.751  0.50 25.01    -0.218 OA
BRANCH  25  27
HETATM   27  C9  SIA C   4     286.914 259.693 207.487  0.50 23.13     0.218 C 
HETATM   28  O9  SIA C   4     288.011 260.050 208.296  0.50 25.78    -0.218 OA
ENDBRANCH  25  27
ENDBRANCH  23  25
ENDBRANCH  14  23
ENDBRANCH   8   9
ENDBRANCH   3   8
BRANCH   5  29
HETATM   29  C6  GAL C   1     286.041 268.331 204.598  0.50 27.50     0.214 C 
HETATM   30  O6  GAL C   1     286.153 269.739 204.560  0.50 28.29    -0.218 OA
ENDBRANCH   5  29
BRANCH   4  31
HETATM   31  O4  GAL C   1     284.349 266.263 203.745  0.50 28.56    -0.327 OA
BRANCH  31  32
HETATM   32  C1  NGA C   2     284.369 264.922 203.238  0.50 27.07     0.262 C 
HETATM   33  C2  NGA C   2     283.972 264.935 201.750  0.50 26.50     0.192 C 
HETATM   34  C3  NGA C   2     284.083 263.535 201.163  0.50 25.00     0.178 C 
HETATM   35  C4  NGA C   2     285.499 262.988 201.412  0.50 27.34     0.211 C 
HETATM   36  C5  NGA C   2     285.767 263.056 202.910  0.50 25.92     0.184 C 
HETATM   37  O4  NGA C   2     286.396 263.829 200.710  0.50 27.11    -0.218 OA
HETATM   38  O5  NGA C   2     285.713 264.418 203.337  0.50 26.89    -0.327 OA
BRANCH  33  39
HETATM   39  N2  NGA C   2     282.648 265.485 201.666  0.50 29.00    -0.232 NA
HETATM   40  C7  NGA C   2     282.255 266.434 200.813  0.50 29.40     0.252 C 
HETATM   41  C8  NGA C   2     280.784 266.839 201.047  0.50 27.66     0.100 C 
HETATM   42  O7  NGA C   2     283.102 266.866 200.003  0.50 31.71    -0.271 OA
ENDBRANCH  33  39
BRANCH  34  43
HETATM   43  O3  NGA C   2     283.911 263.604 199.737  0.50 23.22    -0.327 OA
BRANCH  43  44
HETATM   44  C1  GAL C   3     282.681 263.018 199.313  0.50 18.08     0.270 C 
HETATM   45  C2  GAL C   3     282.857 261.893 198.307  0.50 14.48     0.241 C 
HETATM   46  O2  GAL C   3     283.643 262.338 197.223  0.50 18.21    -0.215 OA
HETATM   47  C3  GAL C   3     281.527 261.306 197.879  0.50 13.31     0.220 C 
HETATM   48  C4  GAL C   3     280.642 261.038 199.094  0.50 13.24     0.215 C 
HETATM   49  O3  GAL C   3     281.643 260.127 197.080  0.50 14.16    -0.218 OA
HETATM   50  C5  GAL C   3     280.603 262.217 200.070  0.50 14.42     0.184 C 
HETATM   51  O4  GAL C   3     281.114 259.922 199.811  0.50 12.87    -0.218 OA
HETATM   52  O5  GAL C   3     281.951 262.527 200.450  0.50 15.88    -0.326 OA
BRANCH  50  53
HETATM   53  C6  GAL C   3     279.893 261.810 201.357  0.50 14.56     0.215 C 
HETATM   54  O6  GAL C   3     278.525 261.593 201.180  0.50 15.78    -0.218 OA
ENDBRANCH  50  53
ENDBRANCH  43  44
ENDBRANCH  34  43
BRANCH  36  55
HETATM   55  C6  NGA C   2     287.080 262.402 203.268  0.50 26.88     0.215 C 
HETATM   56  O6  NGA C   2     288.011 263.398 203.656  0.50 27.96    -0.218 OA
ENDBRANCH  36  55
ENDBRANCH  31  32
ENDBRANCH   4  31
TORSDOF 15
ENDMDL
MODEL 7
REMARK VINA RESULT:      -5.6     28.245     32.531
REMARK  15 active torsions:
REMARK  status: ('A' for Active; 'I' for Inactive)
REMARK    1  A    between atoms: C3_3  and  O3_8 
REMARK    2  A    between atoms: C4_4  and  O4_9 
REMARK    3  A    between atoms: C5_5  and  C6_6 
REMARK    4  A    between atoms: O3_8  and  C2_38 
REMARK    5  A    between atoms: O4_9  and  C1_12 
REMARK    6  A    between atoms: C2_13  and  N2_20 
REMARK    7  A    between atoms: C3_14  and  O3_21 
REMARK    8  A    between atoms: C5_16  and  C6_17 
REMARK       I    between atoms: C7_18  and  N2_20 
REMARK    9  A    between atoms: O3_21  and  C1_26 
REMARK   10  A    between atoms: C5_30  and  C6_31 
REMARK   11  A    between atoms: C1_37  and  C2_38 
REMARK   12  A    between atoms: C5_41  and  N5_48 
REMARK   13  A    between atoms: C6_42  and  C7_43 
REMARK   14  A    between atoms: C7_43  and  C8_44 
REMARK   15  A    between atoms: C8_44  and  C9_45 
REMARK       I    between atoms: C10_46  and  N5_48 
ROOT
HETATM    1  C1  GAL C   1     284.741 259.091 194.581  0.50 31.77     0.178 C 
HETATM    2  C2  GAL C   1     284.376 257.683 195.009  0.50 31.15     0.211 C 
HETATM    3  C3  GAL C   1     282.878 257.534 195.277  0.50 28.21     0.181 C 
HETATM    4  C4  GAL C   1     282.425 258.611 196.257  0.50 27.04     0.177 C 
HETATM    5  C5  GAL C   1     282.802 259.999 195.753  0.50 27.54     0.178 C 
HETATM    6  O2  GAL C   1     284.764 256.742 194.024  0.50 33.53    -0.218 OA
HETATM    7  O5  GAL C   1     284.188 260.071 195.445  0.50 31.32    -0.349 OA
ENDROOT
BRANCH   3   8
HETATM    8  O3  GAL C   1     282.656 256.226 195.756  0.50 27.69    -0.324 OA
BRANCH   8   9
HETATM    9  C2  SIA C   4     281.444 255.533 195.483  0.50 28.46     0.271 C 
HETATM   10  C3  SIA C   4     280.979 255.798 194.072  0.50 27.81     0.103 C 
HETATM   11  C4  SIA C   4     279.569 255.350 193.785  0.50 26.33     0.182 C 
HETATM   12  C5  SIA C   4     278.554 255.562 194.897  0.50 25.92     0.166 C 
HETATM   13  O4  SIA C   4     279.090 255.875 192.568  0.50 27.44    -0.221 OA
HETATM   14  C6  SIA C   4     279.164 255.247 196.254  0.50 24.60     0.176 C 
HETATM   15  O6  SIA C   4     280.430 255.861 196.432  0.50 29.11    -0.325 OA
BRANCH   9  16
HETATM   16  C1  SIA C   4     281.776 254.061 195.660  0.50 24.27     0.240 C 
HETATM   17  O1A SIA C   4     282.152 253.697 196.803  0.50 28.17    -0.644 OA
HETATM   18  O1B SIA C   4     281.695 253.270 194.712  0.50 21.53    -0.644 OA
ENDBRANCH   9  16
BRANCH  12  19
HETATM   19  N5  SIA C   4     277.420 254.680 194.625  0.50 25.74    -0.235 NA
HETATM   20  C10 SIA C   4     276.199 255.145 194.378  0.50 23.32     0.252 C 
HETATM   21  O10 SIA C   4     276.044 256.387 194.379  0.50 26.30    -0.271 OA
HETATM   22  C11 SIA C   4     275.200 254.012 194.109  0.50 20.27     0.100 C 
ENDBRANCH  12  19
BRANCH  14  23
HETATM   23  C7  SIA C   4     278.236 255.726 197.383  0.50 24.96     0.214 C 
HETATM   24  O7  SIA C   4     277.921 257.096 197.150  0.50 23.41    -0.218 OA
BRANCH  23  25
HETATM   25  C8  SIA C   4     278.974 255.532 198.706  0.50 24.91     0.218 C 
HETATM   26  O8  SIA C   4     279.221 254.155 198.948  0.50 25.01    -0.218 OA
BRANCH  25  27
HETATM   27  C9  SIA C   4     278.176 256.112 199.862  0.50 23.13     0.218 C 
HETATM   28  O9  SIA C   4     278.579 255.571 201.100  0.50 25.78    -0.218 OA
ENDBRANCH  25  27
ENDBRANCH  23  25
ENDBRANCH  14  23
ENDBRANCH   8   9
ENDBRANCH   3   8
BRANCH   5  29
HETATM   29  C6  GAL C   1     282.512 261.063 196.815  0.50 27.50     0.214 C 
HETATM   30  O6  GAL C   1     281.180 261.526 196.744  0.50 28.29    -0.218 OA
ENDBRANCH   5  29
BRANCH   4  31
HETATM   31  O4  GAL C   1     282.953 258.390 197.545  0.50 28.56    -0.327 OA
BRANCH  31  32
HETATM   32  C1  NGA C   2     282.039 258.035 198.590  0.50 27.07     0.262 C 
HETATM   33  C2  NGA C   2     282.828 257.757 199.883  0.50 26.50     0.192 C 
HETATM   34  C3  NGA C   2     281.872 257.476 201.034  0.50 25.00     0.178 C 
HETATM   35  C4  NGA C   2     280.876 258.641 201.166  0.50 27.34     0.211 C 
HETATM   36  C5  NGA C   2     280.189 258.821 199.819  0.50 25.92     0.184 C 
HETATM   37  O4  NGA C   2     281.630 259.793 201.496  0.50 27.11    -0.218 OA
HETATM   38  O5  NGA C   2     281.167 259.154 198.832  0.50 26.89    -0.327 OA
BRANCH  33  39
HETATM   39  N2  NGA C   2     283.726 256.669 199.610  0.50 29.00    -0.232 NA
HETATM   40  C7  NGA C   2     285.036 256.663 199.865  0.50 29.40     0.252 C 
HETATM   41  C8  NGA C   2     285.706 255.361 199.376  0.50 27.66     0.100 C 
HETATM   42  O7  NGA C   2     285.522 257.679 200.406  0.50 31.71    -0.271 OA
ENDBRANCH  33  39
BRANCH  34  43
HETATM   43  O3  NGA C   2     282.613 257.425 202.265  0.50 23.22    -0.327 OA
BRANCH  43  44
HETATM   44  C1  GAL C   3     282.529 256.145 202.893  0.50 18.08     0.270 C 
HETATM   45  C2  GAL C   3     281.970 256.196 204.305  0.50 14.48     0.241 C 
HETATM   46  O2  GAL C   3     282.699 257.127 205.076  0.50 18.21    -0.215 OA
HETATM   47  C3  GAL C   3     281.905 254.820 204.935  0.50 13.31     0.220 C 
HETATM   48  C4  GAL C   3     281.290 253.813 203.965  0.50 13.24     0.215 C 
HETATM   49  O3  GAL C   3     281.217 254.786 206.187  0.50 14.16    -0.218 OA
HETATM   50  C5  GAL C   3     281.884 253.909 202.557  0.50 14.42     0.184 C 
HETATM   51  O4  GAL C   3     279.904 254.027 203.846  0.50 12.87    -0.218 OA
HETATM   52  O5  GAL C   3     281.725 255.258 202.097  0.50 15.88    -0.326 OA
BRANCH  50  53
HETATM   53  C6  GAL C   3     281.082 253.044 201.590  0.50 14.56     0.215 C 
HETATM   54  O6  GAL C   3     281.875 252.141 200.880  0.50 15.78    -0.218 OA
ENDBRANCH  50  53
ENDBRANCH  43  44
ENDBRANCH  34  43
BRANCH  36  55
HETATM   55  C6  NGA C   2     279.086 259.849 199.892  0.50 26.88     0.215 C 
HETATM   56  O6  NGA C   2     278.042 259.361 200.717  0.50 27.96    -0.218 OA
ENDBRANCH  36  55
ENDBRANCH  31  32
ENDBRANCH   4  31
TORSDOF 15
ENDMDL
MODEL 8
REMARK VINA RESULT:      -5.5     27.573     32.052
REMARK  15 active torsions:
REMARK  status: ('A' for Active; 'I' for Inactive)
REMARK    1  A    between atoms: C3_3  and  O3_8 
REMARK    2  A    between atoms: C4_4  and  O4_9 
REMARK    3  A    between atoms: C5_5  and  C6_6 
REMARK    4  A    between atoms: O3_8  and  C2_38 
REMARK    5  A    between atoms: O4_9  and  C1_12 
REMARK    6  A    between atoms: C2_13  and  N2_20 
REMARK    7  A    between atoms: C3_14  and  O3_21 
REMARK    8  A    between atoms: C5_16  and  C6_17 
REMARK       I    between atoms: C7_18  and  N2_20 
REMARK    9  A    between atoms: O3_21  and  C1_26 
REMARK   10  A    between atoms: C5_30  and  C6_31 
REMARK   11  A    between atoms: C1_37  and  C2_38 
REMARK   12  A    between atoms: C5_41  and  N5_48 
REMARK   13  A    between atoms: C6_42  and  C7_43 
REMARK   14  A    between atoms: C7_43  and  C8_44 
REMARK   15  A    between atoms: C8_44  and  C9_45 
REMARK       I    between atoms: C10_46  and  N5_48 
ROOT
HETATM    1  C1  GAL C   1     273.435 253.618 188.854  0.50 31.77     0.178 C 
HETATM    2  C2  GAL C   1     273.315 254.700 189.910  0.50 31.15     0.211 C 
HETATM    3  C3  GAL C   1     274.459 255.713 189.828  0.50 28.21     0.181 C 
HETATM    4  C4  GAL C   1     275.794 254.976 189.853  0.50 27.04     0.177 C 
HETATM    5  C5  GAL C   1     275.855 253.923 188.754  0.50 27.54     0.178 C 
HETATM    6  O2  GAL C   1     272.082 255.388 189.786  0.50 33.53    -0.218 OA
HETATM    7  O5  GAL C   1     274.735 253.050 188.821  0.50 31.32    -0.349 OA
ENDROOT
BRANCH   3   8
HETATM    8  O3  GAL C   1     274.309 256.617 190.901  0.50 27.69    -0.324 OA
BRANCH   8   9
HETATM    9  C2  SIA C   4     274.036 257.994 190.677  0.50 28.46     0.271 C 
HETATM   10  C3  SIA C   4     272.688 258.374 191.239  0.50 27.81     0.103 C 
HETATM   11  C4  SIA C   4     272.186 259.724 190.799  0.50 26.33     0.182 C 
HETATM   12  C5  SIA C   4     272.464 260.110 189.354  0.50 25.92     0.166 C 
HETATM   13  O4  SIA C   4     270.823 259.903 191.108  0.50 27.44    -0.221 OA
HETATM   14  C6  SIA C   4     273.859 259.671 188.935  0.50 24.60     0.176 C 
HETATM   15  O6  SIA C   4     274.130 258.325 189.292  0.50 29.11    -0.325 OA
BRANCH   9  16
HETATM   16  C1  SIA C   4     275.140 258.744 191.401  0.50 24.27     0.240 C 
HETATM   17  O1A SIA C   4     276.016 259.295 190.688  0.50 28.17    -0.644 OA
HETATM   18  O1B SIA C   4     275.177 258.788 192.638  0.50 21.53    -0.644 OA
ENDBRANCH   9  16
BRANCH  12  19
HETATM   19  N5  SIA C   4     272.331 261.563 189.258  0.50 25.74    -0.235 NA
HETATM   20  C10 SIA C   4     271.284 262.146 188.681  0.50 23.32     0.252 C 
HETATM   21  O10 SIA C   4     270.393 261.400 188.216  0.50 26.30    -0.271 OA
HETATM   22  C11 SIA C   4     271.385 263.676 188.729  0.50 20.27     0.100 C 
ENDBRANCH  12  19
BRANCH  14  23
HETATM   23  C7  SIA C   4     274.030 259.808 187.413  0.50 24.96     0.214 C 
HETATM   24  O7  SIA C   4     274.272 261.181 187.114  0.50 23.41    -0.218 OA
BRANCH  23  25
HETATM   25  C8  SIA C   4     272.748 259.304 186.753  0.50 24.91     0.218 C 
HETATM   26  O8  SIA C   4     272.899 257.959 186.325  0.50 25.01    -0.218 OA
BRANCH  25  27
HETATM   27  C9  SIA C   4     272.373 260.172 185.564  0.50 23.13     0.218 C 
HETATM   28  O9  SIA C   4     272.962 259.710 184.370  0.50 25.78    -0.218 OA
ENDBRANCH  25  27
ENDBRANCH  23  25
ENDBRANCH  14  23
ENDBRANCH   8   9
ENDBRANCH   3   8
BRANCH   5  29
HETATM   29  C6  GAL C   1     277.115 253.064 188.891  0.50 27.50     0.214 C 
HETATM   30  O6  GAL C   1     277.702 252.788 187.636  0.50 28.29    -0.218 OA
ENDBRANCH   5  29
BRANCH   4  31
HETATM   31  O4  GAL C   1     276.037 254.394 191.114  0.50 28.56    -0.327 OA
BRANCH  31  32
HETATM   32  C1  NGA C   2     277.048 254.986 191.940  0.50 27.07     0.262 C 
HETATM   33  C2  NGA C   2     276.660 254.816 193.420  0.50 26.50     0.192 C 
HETATM   34  C3  NGA C   2     277.766 255.347 194.320  0.50 25.00     0.178 C 
HETATM   35  C4  NGA C   2     279.094 254.663 193.955  0.50 27.34     0.211 C 
HETATM   36  C5  NGA C   2     279.341 254.888 192.470  0.50 25.92     0.184 C 
HETATM   37  O4  NGA C   2     278.935 253.282 194.227  0.50 27.11    -0.218 OA
HETATM   38  O5  NGA C   2     278.285 254.285 191.720  0.50 26.89    -0.327 OA
BRANCH  33  39
HETATM   39  N2  NGA C   2     275.400 255.480 193.611  0.50 29.00    -0.232 NA
HETATM   40  C7  NGA C   2     274.307 254.932 194.145  0.50 29.40     0.252 C 
HETATM   41  C8  NGA C   2     273.113 255.910 194.131  0.50 27.66     0.100 C 
HETATM   42  O7  NGA C   2     274.388 253.747 194.533  0.50 31.71    -0.271 OA
ENDBRANCH  33  39
BRANCH  34  43
HETATM   43  O3  NGA C   2     277.479 254.993 195.684  0.50 23.22    -0.327 OA
BRANCH  43  44
HETATM   44  C1  GAL C   3     278.372 255.622 196.604  0.50 18.08     0.270 C 
HETATM   45  C2  GAL C   3     277.689 256.609 197.536  0.50 14.48     0.241 C 
HETATM   46  O2  GAL C   3     276.946 257.544 196.782  0.50 18.21    -0.215 OA
HETATM   47  C3  GAL C   3     278.672 257.258 198.488  0.50 13.31     0.220 C 
HETATM   48  C4  GAL C   3     279.585 256.207 199.116  0.50 13.24     0.215 C 
HETATM   49  O3  GAL C   3     278.058 258.053 199.505  0.50 14.16    -0.218 OA
HETATM   50  C5  GAL C   3     280.153 255.226 198.087  0.50 14.42     0.184 C 
HETATM   51  O4  GAL C   3     278.880 255.447 200.068  0.50 12.87    -0.218 OA
HETATM   52  O5  GAL C   3     279.054 254.627 197.386  0.50 15.88    -0.326 OA
BRANCH  50  53
HETATM   53  C6  GAL C   3     280.867 254.079 198.795  0.50 14.56     0.215 C 
HETATM   54  O6  GAL C   3     280.868 252.896 198.052  0.50 15.78    -0.218 OA
ENDBRANCH  50  53
ENDBRANCH  43  44
ENDBRANCH  34  43
BRANCH  36  55
HETATM   55  C6  NGA C   2     280.698 254.376 192.049  0.50 26.88     0.215 C 
HETATM   56  O6  NGA C   2     281.510 255.467 191.652  0.50 27.96    -0.218 OA
ENDBRANCH  36  55
ENDBRANCH  31  32
ENDBRANCH   4  31
TORSDOF 15
ENDMDL
MODEL 9
REMARK VINA RESULT:      -5.5     27.928     30.852
REMARK  15 active torsions:
REMARK  status: ('A' for Active; 'I' for Inactive)
REMARK    1  A    between atoms: C3_3  and  O3_8 
REMARK    2  A    between atoms: C4_4  and  O4_9 
REMARK    3  A    between atoms: C5_5  and  C6_6 
REMARK    4  A    between atoms: O3_8  and  C2_38 
REMARK    5  A    between atoms: O4_9  and  C1_12 
REMARK    6  A    between atoms: C2_13  and  N2_20 
REMARK    7  A    between atoms: C3_14  and  O3_21 
REMARK    8  A    between atoms: C5_16  and  C6_17 
REMARK       I    between atoms: C7_18  and  N2_20 
REMARK    9  A    between atoms: O3_21  and  C1_26 
REMARK   10  A    between atoms: C5_30  and  C6_31 
REMARK   11  A    between atoms: C1_37  and  C2_38 
REMARK   12  A    between atoms: C5_41  and  N5_48 
REMARK   13  A    between atoms: C6_42  and  C7_43 
REMARK   14  A    between atoms: C7_43  and  C8_44 
REMARK   15  A    between atoms: C8_44  and  C9_45 
REMARK       I    between atoms: C10_46  and  N5_48 
ROOT
HETATM    1  C1  GAL C   1     284.703 265.909 193.632  0.50 31.77     0.178 C 
HETATM    2  C2  GAL C   1     283.735 267.072 193.724  0.50 31.15     0.211 C 
HETATM    3  C3  GAL C   1     284.427 268.417 193.494  0.50 28.21     0.181 C 
HETATM    4  C4  GAL C   1     285.626 268.539 194.429  0.50 27.04     0.177 C 
HETATM    5  C5  GAL C   1     286.567 267.352 194.267  0.50 27.54     0.178 C 
HETATM    6  O2  GAL C   1     282.685 266.929 192.783  0.50 33.53    -0.218 OA
HETATM    7  O5  GAL C   1     285.867 266.122 194.414  0.50 31.32    -0.349 OA
ENDROOT
BRANCH   3   8
HETATM    8  O3  GAL C   1     283.469 269.433 193.692  0.50 27.69    -0.324 OA
BRANCH   8   9
HETATM    9  C2  SIA C   4     283.459 270.608 192.892  0.50 28.46     0.271 C 
HETATM   10  C3  SIA C   4     284.856 270.965 192.445  0.50 27.81     0.103 C 
HETATM   11  C4  SIA C   4     284.986 272.341 191.845  0.50 26.33     0.182 C 
HETATM   12  C5  SIA C   4     284.170 273.443 192.500  0.50 25.92     0.166 C 
HETATM   13  O4  SIA C   4     286.334 272.730 191.716  0.50 27.44    -0.221 OA
HETATM   14  C6  SIA C   4     282.788 272.938 192.886  0.50 24.60     0.176 C 
HETATM   15  O6  SIA C   4     282.841 271.699 193.574  0.50 29.11    -0.325 OA
BRANCH   9  16
HETATM   16  C1  SIA C   4     282.591 270.270 191.692  0.50 24.27     0.240 C 
HETATM   17  O1A SIA C   4     281.412 269.906 191.928  0.50 28.17    -0.644 OA
HETATM   18  O1B SIA C   4     283.041 270.333 190.541  0.50 21.53    -0.644 OA
ENDBRANCH   9  16
BRANCH  12  19
HETATM   19  N5  SIA C   4     284.066 274.539 191.537  0.50 25.74    -0.235 NA
HETATM   20  C10 SIA C   4     284.542 275.755 191.789  0.50 23.32     0.252 C 
HETATM   21  O10 SIA C   4     285.099 275.939 192.894  0.50 26.30    -0.271 OA
HETATM   22  C11 SIA C   4     284.319 276.711 190.609  0.50 20.27     0.100 C 
ENDBRANCH  12  19
BRANCH  14  23
HETATM   23  C7  SIA C   4     282.077 273.958 193.790  0.50 24.96     0.214 C 
HETATM   24  O7  SIA C   4     281.807 273.333 195.042  0.50 23.41    -0.218 OA
BRANCH  23  25
HETATM   25  C8  SIA C   4     280.792 274.389 193.085  0.50 24.91     0.218 C 
HETATM   26  O8  SIA C   4     280.431 273.452 192.081  0.50 25.01    -0.218 OA
BRANCH  25  27
HETATM   27  C9  SIA C   4     280.952 275.763 192.456  0.50 23.13     0.218 C 
HETATM   28  O9  SIA C   4     281.237 276.751 193.421  0.50 25.78    -0.218 OA
ENDBRANCH  25  27
ENDBRANCH  23  25
ENDBRANCH  14  23
ENDBRANCH   8   9
ENDBRANCH   3   8
BRANCH   5  29
HETATM   29  C6  GAL C   1     287.670 267.381 195.328  0.50 27.50     0.214 C 
HETATM   30  O6  GAL C   1     287.432 266.444 196.358  0.50 28.29    -0.218 OA
ENDBRANCH   5  29
BRANCH   4  31
HETATM   31  O4  GAL C   1     285.219 268.671 195.772  0.50 28.56    -0.327 OA
BRANCH  31  32
HETATM   32  C1  NGA C   2     285.304 269.970 196.372  0.50 27.07     0.262 C 
HETATM   33  C2  NGA C   2     285.874 269.835 197.797  0.50 26.50     0.192 C 
HETATM   34  C3  NGA C   2     286.069 271.211 198.419  0.50 25.00     0.178 C 
HETATM   35  C4  NGA C   2     286.943 272.071 197.491  0.50 27.34     0.211 C 
HETATM   36  C5  NGA C   2     286.281 272.098 196.120  0.50 25.92     0.184 C 
HETATM   37  O4  NGA C   2     288.209 271.442 197.416  0.50 27.11    -0.218 OA
HETATM   38  O5  NGA C   2     286.218 270.769 195.600  0.50 26.89    -0.327 OA
BRANCH  33  39
HETATM   39  N2  NGA C   2     284.975 268.996 198.539  0.50 29.00    -0.232 NA
HETATM   40  C7  NGA C   2     285.328 267.936 199.269  0.50 29.40     0.252 C 
HETATM   41  C8  NGA C   2     284.099 267.223 199.872  0.50 27.66     0.100 C 
HETATM   42  O7  NGA C   2     286.545 267.660 199.333  0.50 31.71    -0.271 OA
ENDBRANCH  33  39
BRANCH  34  43
HETATM   43  O3  NGA C   2     286.789 271.075 199.656  0.50 23.22    -0.327 OA
BRANCH  43  44
HETATM   44  C1  GAL C   3     286.269 271.923 200.679  0.50 18.08     0.270 C 
HETATM   45  C2  GAL C   3     286.256 271.278 202.056  0.50 14.48     0.241 C 
HETATM   46  O2  GAL C   3     285.590 270.035 201.996  0.50 18.21    -0.215 OA
HETATM   47  C3  GAL C   3     285.690 272.209 203.109  0.50 13.31     0.220 C 
HETATM   48  C4  GAL C   3     286.307 273.600 202.984  0.50 13.24     0.215 C 
HETATM   49  O3  GAL C   3     285.827 271.724 204.446  0.50 14.16    -0.218 OA
HETATM   50  C5  GAL C   3     286.330 274.110 201.541  0.50 14.42     0.184 C 
HETATM   51  O4  GAL C   3     287.638 273.592 203.441  0.50 12.87    -0.218 OA
HETATM   52  O5  GAL C   3     287.023 273.145 200.737  0.50 15.88    -0.326 OA
BRANCH  50  53
HETATM   53  C6  GAL C   3     287.151 275.392 201.450  0.50 14.56     0.215 C 
HETATM   54  O6  GAL C   3     287.091 275.990 200.190  0.50 15.78    -0.218 OA
ENDBRANCH  50  53
ENDBRANCH  43  44
ENDBRANCH  34  43
BRANCH  36  55
HETATM   55  C6  NGA C   2     286.991 273.041 195.179  0.50 26.88     0.215 C 
HETATM   56  O6  NGA C   2     286.474 274.350 195.345  0.50 27.96    -0.218 OA
ENDBRANCH  36  55
ENDBRANCH  31  32
ENDBRANCH   4  31
TORSDOF 15
ENDMDL
