MODEL 1
REMARK VINA RESULT:      -6.6      0.000      0.000
REMARK  18 active torsions:
REMARK  status: ('A' for Active; 'I' for Inactive)
REMARK    1  A    between atoms: C4_3  and  O4_10 
REMARK    2  A    between atoms: C5_4  and  C6_5 
REMARK    3  A    between atoms: O4_10  and  C1_13 
REMARK    4  A    between atoms: C3_15  and  O3_20 
REMARK    5  A    between atoms: C4_16  and  O4_21 
REMARK    6  A    between atoms: C5_17  and  C6_18 
REMARK    7  A    between atoms: O3_20  and  C2_50 
REMARK    8  A    between atoms: O4_21  and  C1_24 
REMARK    9  A    between atoms: C2_25  and  N2_32 
REMARK   10  A    between atoms: C3_26  and  O3_33 
REMARK   11  A    between atoms: C5_28  and  C6_29 
REMARK       I    between atoms: C7_30  and  N2_32 
REMARK   12  A    between atoms: O3_33  and  C1_38 
REMARK   13  A    between atoms: C5_42  and  C6_43 
REMARK   14  A    between atoms: C1_49  and  C2_50 
REMARK   15  A    between atoms: C5_53  and  N5_60 
REMARK   16  A    between atoms: C6_54  and  C7_55 
REMARK   17  A    between atoms: C7_55  and  C8_56 
REMARK   18  A    between atoms: C8_56  and  C9_57 
REMARK       I    between atoms: C10_58  and  N5_60 
ROOT
HETATM    1  C2  BGC J   1     283.876 260.346 207.854  1.00 33.73     0.244 C 
HETATM    2  C3  BGC J   1     283.452 261.105 206.604  1.00 34.22     0.217 C 
HETATM    3  C4  BGC J   1     282.661 262.366 206.990  1.00 35.62     0.181 C 
HETATM    4  C5  BGC J   1     283.507 263.210 207.937  1.00 33.72     0.181 C 
HETATM    5  C1  BGC J   1     284.568 261.197 208.907  1.00 35.29     0.303 C 
HETATM    6  O1  BGC J   1     284.622 260.564 210.192  1.00 22.52    -0.187 OA
HETATM    7  O2  BGC J   1     284.699 259.239 207.517  1.00 40.75    -0.215 OA
HETATM    8  O3  BGC J   1     282.623 260.277 205.777  1.00 32.08    -0.218 OA
HETATM    9  O5  BGC J   1     283.978 262.471 209.038  1.00 36.77    -0.324 OA
ENDROOT
BRANCH   3  10
HETATM   10  O4  BGC J   1     282.466 263.144 205.819  1.00 33.55    -0.326 OA
BRANCH  10  11
HETATM   11  C1  GAL J   2     283.273 262.916 204.664  1.00 29.50     0.270 C 
HETATM   12  C2  GAL J   2     282.517 263.308 203.419  1.00 27.02     0.238 C 
HETATM   13  C3  GAL J   2     283.423 263.430 202.183  1.00 23.05     0.183 C 
HETATM   14  O2  GAL J   2     281.557 262.301 203.122  1.00 31.87    -0.215 OA
HETATM   15  C4  GAL J   2     284.590 264.353 202.537  1.00 23.22     0.177 C 
HETATM   16  C5  GAL J   2     285.316 263.817 203.766  1.00 24.62     0.180 C 
HETATM   17  O5  GAL J   2     284.372 263.815 204.841  1.00 30.39    -0.326 OA
BRANCH  13  18
HETATM   18  O3  GAL J   2     282.611 264.080 201.198  1.00 25.06    -0.324 OA
BRANCH  18  19
HETATM   19  C2  SIA J   5     282.504 263.461 199.932  1.00 22.94     0.271 C 
HETATM   20  C3  SIA J   5     281.351 262.493 199.812  1.00 25.74     0.103 C 
HETATM   21  C4  SIA J   5     281.271 261.908 198.403  1.00 26.04     0.182 C 
HETATM   22  C5  SIA J   5     282.619 261.263 198.020  1.00 24.75     0.166 C 
HETATM   23  O4  SIA J   5     280.349 260.807 198.466  1.00 26.63    -0.221 OA
HETATM   24  C6  SIA J   5     283.717 262.302 198.225  1.00 22.50     0.176 C 
HETATM   25  O6  SIA J   5     283.720 262.778 199.601  1.00 22.65    -0.325 OA
BRANCH  19  26
HETATM   26  C1  SIA J   5     282.305 264.617 198.961  1.00 25.20     0.240 C 
HETATM   27  O1A SIA J   5     283.323 265.328 198.786  1.00 24.36    -0.644 OA
HETATM   28  O1B SIA J   5     281.162 264.777 198.476  1.00 23.37    -0.644 OA
ENDBRANCH  19  26
BRANCH  22  29
HETATM   29  N5  SIA J   5     282.489 260.787 196.651  1.00 21.56    -0.235 NA
HETATM   30  C10 SIA J   5     282.638 259.529 196.241  1.00 23.49     0.252 C 
HETATM   31  O10 SIA J   5     282.937 258.629 197.074  1.00 26.49    -0.271 OA
HETATM   32  C11 SIA J   5     282.457 259.392 194.728  1.00 20.70     0.100 C 
ENDBRANCH  22  29
BRANCH  24  33
HETATM   33  C7  SIA J   5     285.107 261.740 197.936  1.00 23.24     0.214 C 
HETATM   34  O7  SIA J   5     285.910 261.610 199.123  1.00 24.21    -0.218 OA
BRANCH  33  35
HETATM   35  C8  SIA J   5     285.779 262.708 196.968  1.00 24.66     0.218 C 
HETATM   36  O8  SIA J   5     284.830 263.676 196.577  1.00 20.98    -0.218 OA
BRANCH  35  37
HETATM   37  C9  SIA J   5     286.342 261.933 195.794  1.00 22.69     0.218 C 
HETATM   38  O9  SIA J   5     285.342 261.434 194.912  1.00 26.43    -0.218 OA
ENDBRANCH  35  37
ENDBRANCH  33  35
ENDBRANCH  24  33
ENDBRANCH  18  19
ENDBRANCH  13  18
BRANCH  15  39
HETATM   39  O4  GAL J   2     284.117 265.650 202.875  1.00 22.03    -0.327 OA
BRANCH  39  40
HETATM   40  C1  NGA J   3     284.527 266.656 201.969  1.00 22.91     0.262 C 
HETATM   41  C2  NGA J   3     285.066 267.830 202.797  1.00 21.55     0.192 C 
HETATM   42  C3  NGA J   3     285.656 268.846 201.872  1.00 19.57     0.178 C 
HETATM   43  C4  NGA J   3     286.651 268.272 200.862  1.00 18.76     0.211 C 
HETATM   44  C5  NGA J   3     286.004 267.107 200.142  1.00 22.49     0.184 C 
HETATM   45  O4  NGA J   3     287.860 267.909 201.505  1.00 22.74    -0.218 OA
HETATM   46  O5  NGA J   3     285.568 266.151 201.124  1.00 25.46    -0.327 OA
BRANCH  41  47
HETATM   47  N2  NGA J   3     283.963 268.221 203.657  1.00 24.00    -0.232 NA
HETATM   48  C7  NGA J   3     284.140 268.490 204.967  1.00 26.74     0.252 C 
HETATM   49  C8  NGA J   3     282.790 268.706 205.653  1.00 22.43     0.100 C 
HETATM   50  O7  NGA J   3     285.288 268.485 205.505  1.00 22.79    -0.271 OA
ENDBRANCH  41  47
BRANCH  42  51
HETATM   51  O3  NGA J   3     286.269 269.910 202.581  1.00 17.99    -0.327 OA
BRANCH  51  52
HETATM   52  C1  GAL J   4     285.757 271.180 202.244  1.00 14.14     0.270 C 
HETATM   53  C2  GAL J   4     286.387 272.203 203.164  1.00 12.92     0.241 C 
HETATM   54  C3  GAL J   4     285.958 273.619 202.800  1.00 11.17     0.220 C 
HETATM   55  O2  GAL J   4     286.100 271.937 204.521  1.00 13.46    -0.215 OA
HETATM   56  C4  GAL J   4     286.270 273.837 201.318  1.00 11.62     0.215 C 
HETATM   57  O3  GAL J   4     286.661 274.539 203.601  1.00 11.38    -0.218 OA
HETATM   58  O4  GAL J   4     287.676 273.901 201.124  1.00 11.09    -0.218 OA
HETATM   59  C5  GAL J   4     285.672 272.727 200.473  1.00 12.47     0.184 C 
HETATM   60  O5  GAL J   4     286.205 271.473 200.911  1.00 13.45    -0.326 OA
BRANCH  59  61
HETATM   61  C6  GAL J   4     286.081 272.808 199.023  1.00 11.95     0.215 C 
HETATM   62  O6  GAL J   4     285.036 272.512 198.120  1.00 15.73    -0.218 OA
ENDBRANCH  59  61
ENDBRANCH  51  52
ENDBRANCH  42  51
BRANCH  44  63
HETATM   63  C6  NGA J   3     286.926 266.451 199.142  1.00 23.49     0.215 C 
HETATM   64  O6  NGA J   3     287.369 267.358 198.162  1.00 36.93    -0.218 OA
ENDBRANCH  44  63
ENDBRANCH  39  40
ENDBRANCH  15  39
BRANCH  16  65
HETATM   65  C6  GAL J   2     286.472 264.758 204.150  1.00 29.12     0.214 C 
HETATM   66  O6  GAL J   2     287.507 264.675 203.170  1.00 34.44    -0.218 OA
ENDBRANCH  16  65
ENDBRANCH  10  11
ENDBRANCH   3  10
BRANCH   4  67
HETATM   67  C6  BGC J   1     282.908 264.559 208.351  1.00 30.61     0.214 C 
HETATM   68  O6  BGC J   1     283.347 264.985 209.612  1.00 38.23    -0.218 OA
ENDBRANCH   4  67
TORSDOF 18
ENDMDL
MODEL 2
REMARK VINA RESULT:      -6.5      4.733     10.419
REMARK  18 active torsions:
REMARK  status: ('A' for Active; 'I' for Inactive)
REMARK    1  A    between atoms: C4_3  and  O4_10 
REMARK    2  A    between atoms: C5_4  and  C6_5 
REMARK    3  A    between atoms: O4_10  and  C1_13 
REMARK    4  A    between atoms: C3_15  and  O3_20 
REMARK    5  A    between atoms: C4_16  and  O4_21 
REMARK    6  A    between atoms: C5_17  and  C6_18 
REMARK    7  A    between atoms: O3_20  and  C2_50 
REMARK    8  A    between atoms: O4_21  and  C1_24 
REMARK    9  A    between atoms: C2_25  and  N2_32 
REMARK   10  A    between atoms: C3_26  and  O3_33 
REMARK   11  A    between atoms: C5_28  and  C6_29 
REMARK       I    between atoms: C7_30  and  N2_32 
REMARK   12  A    between atoms: O3_33  and  C1_38 
REMARK   13  A    between atoms: C5_42  and  C6_43 
REMARK   14  A    between atoms: C1_49  and  C2_50 
REMARK   15  A    between atoms: C5_53  and  N5_60 
REMARK   16  A    between atoms: C6_54  and  C7_55 
REMARK   17  A    between atoms: C7_55  and  C8_56 
REMARK   18  A    between atoms: C8_56  and  C9_57 
REMARK       I    between atoms: C10_58  and  N5_60 
ROOT
HETATM    1  C2  BGC J   1     282.497 261.830 206.618  1.00 33.73     0.244 C 
HETATM    2  C3  BGC J   1     283.289 261.944 205.323  1.00 34.22     0.217 C 
HETATM    3  C4  BGC J   1     282.779 263.132 204.491  1.00 35.62     0.181 C 
HETATM    4  C5  BGC J   1     282.848 264.396 205.339  1.00 33.72     0.181 C 
HETATM    5  C1  BGC J   1     282.391 263.124 207.410  1.00 35.29     0.303 C 
HETATM    6  O1  BGC J   1     281.358 263.088 208.405  1.00 22.52    -0.187 OA
HETATM    7  O2  BGC J   1     283.028 260.805 207.446  1.00 40.75    -0.215 OA
HETATM    8  O3  BGC J   1     283.149 260.746 204.548  1.00 32.08    -0.218 OA
HETATM    9  O5  BGC J   1     282.199 264.246 206.578  1.00 36.77    -0.324 OA
ENDROOT
BRANCH   3  10
HETATM   10  O4  BGC J   1     283.670 263.327 203.402  1.00 33.55    -0.326 OA
BRANCH  10  11
HETATM   11  C1  GAL J   2     283.223 263.115 202.064  1.00 29.50     0.270 C 
HETATM   12  C2  GAL J   2     284.029 262.017 201.416  1.00 27.02     0.238 C 
HETATM   13  C3  GAL J   2     283.389 261.489 200.122  1.00 23.05     0.183 C 
HETATM   14  O2  GAL J   2     285.308 262.527 201.059  1.00 31.87    -0.215 OA
HETATM   15  C4  GAL J   2     281.937 261.119 200.424  1.00 23.22     0.177 C 
HETATM   16  C5  GAL J   2     281.210 262.326 201.008  1.00 24.62     0.180 C 
HETATM   17  O5  GAL J   2     281.875 262.665 202.228  1.00 30.39    -0.326 OA
BRANCH  13  18
HETATM   18  O3  GAL J   2     284.110 260.288 199.821  1.00 25.06    -0.324 OA
BRANCH  18  19
HETATM   19  C2  SIA J   5     284.560 260.115 198.493  1.00 22.94     0.271 C 
HETATM   20  C3  SIA J   5     285.704 261.020 198.102  1.00 25.74     0.103 C 
HETATM   21  C4  SIA J   5     286.166 260.735 196.674  1.00 26.04     0.182 C 
HETATM   22  C5  SIA J   5     284.974 260.846 195.700  1.00 24.75     0.166 C 
HETATM   23  O4  SIA J   5     287.038 261.815 196.300  1.00 26.63    -0.221 OA
HETATM   24  C6  SIA J   5     283.859 259.938 196.210  1.00 22.50     0.176 C 
HETATM   25  O6  SIA J   5     283.481 260.305 197.568  1.00 22.65    -0.325 OA
BRANCH  19  26
HETATM   26  C1  SIA J   5     285.013 258.663 198.432  1.00 25.20     0.240 C 
HETATM   27  O1A SIA J   5     286.257 258.508 198.403  1.00 24.36    -0.644 OA
HETATM   28  O1B SIA J   5     284.126 257.781 198.370  1.00 23.37    -0.644 OA
ENDBRANCH  19  26
BRANCH  22  29
HETATM   29  N5  SIA J   5     285.472 260.502 194.377  1.00 21.56    -0.235 NA
HETATM   30  C10 SIA J   5     285.611 261.338 193.350  1.00 23.49     0.252 C 
HETATM   31  O10 SIA J   5     285.278 262.549 193.477  1.00 26.49    -0.271 OA
HETATM   32  C11 SIA J   5     286.138 260.630 192.100  1.00 20.70     0.100 C 
ENDBRANCH  22  29
BRANCH  24  33
HETATM   33  C7  SIA J   5     282.601 260.026 195.348  1.00 23.24     0.214 C 
HETATM   34  O7  SIA J   5     281.574 260.837 195.949  1.00 24.21    -0.218 OA
BRANCH  33  35
HETATM   35  C8  SIA J   5     282.090 258.600 195.173  1.00 24.66     0.218 C 
HETATM   36  O8  SIA J   5     281.314 258.264 196.302  1.00 20.98    -0.218 OA
BRANCH  35  37
HETATM   37  C9  SIA J   5     283.266 257.667 194.973  1.00 22.69     0.218 C 
HETATM   38  O9  SIA J   5     282.944 256.501 194.222  1.00 26.43    -0.218 OA
ENDBRANCH  35  37
ENDBRANCH  33  35
ENDBRANCH  24  33
ENDBRANCH  18  19
ENDBRANCH  13  18
BRANCH  15  39
HETATM   39  O4  GAL J   2     281.875 260.092 201.405  1.00 22.03    -0.327 OA
BRANCH  39  40
HETATM   40  C1  NGA J   3     281.590 258.814 200.869  1.00 22.91     0.262 C 
HETATM   41  C2  NGA J   3     281.955 257.776 201.938  1.00 21.55     0.192 C 
HETATM   42  C3  NGA J   3     281.518 256.424 201.470  1.00 19.57     0.178 C 
HETATM   43  C4  NGA J   3     280.065 256.363 200.997  1.00 18.76     0.211 C 
HETATM   44  C5  NGA J   3     279.835 257.458 199.974  1.00 22.49     0.184 C 
HETATM   45  O4  NGA J   3     279.178 256.455 202.097  1.00 22.74    -0.218 OA
HETATM   46  O5  NGA J   3     280.193 258.718 200.568  1.00 25.46    -0.327 OA
BRANCH  41  47
HETATM   47  N2  NGA J   3     283.362 258.000 202.215  1.00 24.00    -0.232 NA
HETATM   48  C7  NGA J   3     283.883 257.832 203.449  1.00 26.74     0.252 C 
HETATM   49  C8  NGA J   3     285.339 258.301 203.481  1.00 22.43     0.100 C 
HETATM   50  O7  NGA J   3     283.188 257.402 204.419  1.00 22.79    -0.271 OA
ENDBRANCH  41  47
BRANCH  42  51
HETATM   51  O3  NGA J   3     281.730 255.431 202.460  1.00 17.99    -0.327 OA
BRANCH  51  52
HETATM   52  C1  GAL J   4     282.501 254.341 202.008  1.00 14.14     0.270 C 
HETATM   53  C2  GAL J   4     281.563 253.199 201.683  1.00 12.92     0.241 C 
HETATM   54  C3  GAL J   4     282.314 252.011 201.095  1.00 11.17     0.220 C 
HETATM   55  O2  GAL J   4     280.815 252.797 202.812  1.00 13.46    -0.215 OA
HETATM   56  C4  GAL J   4     283.122 252.514 199.896  1.00 11.62     0.215 C 
HETATM   57  O3  GAL J   4     281.388 251.027 200.697  1.00 11.38    -0.218 OA
HETATM   58  O4  GAL J   4     282.246 252.860 198.832  1.00 11.09    -0.218 OA
HETATM   59  C5  GAL J   4     283.975 253.707 200.285  1.00 12.47     0.184 C 
HETATM   60  O5  GAL J   4     283.122 254.746 200.776  1.00 13.45    -0.326 OA
BRANCH  59  61
HETATM   61  C6  GAL J   4     284.672 254.340 199.106  1.00 11.95     0.215 C 
HETATM   62  O6  GAL J   4     285.788 255.130 199.462  1.00 15.73    -0.218 OA
ENDBRANCH  59  61
ENDBRANCH  51  52
ENDBRANCH  42  51
BRANCH  44  63
HETATM   63  C6  NGA J   3     278.412 257.498 199.470  1.00 23.49     0.215 C 
HETATM   64  O6  NGA J   3     278.152 258.661 198.723  1.00 36.93    -0.218 OA
ENDBRANCH  44  63
ENDBRANCH  39  40
ENDBRANCH  15  39
BRANCH  16  65
HETATM   65  C6  GAL J   2     279.755 261.954 201.348  1.00 29.12     0.214 C 
HETATM   66  O6  GAL J   2     279.056 261.602 200.153  1.00 34.44    -0.218 OA
ENDBRANCH  16  65
ENDBRANCH  10  11
ENDBRANCH   3  10
BRANCH   4  67
HETATM   67  C6  BGC J   1     282.464 265.702 204.633  1.00 30.61     0.214 C 
HETATM   68  O6  BGC J   1     281.571 266.482 205.378  1.00 38.23    -0.218 OA
ENDBRANCH   4  67
TORSDOF 18
ENDMDL
MODEL 3
REMARK VINA RESULT:      -6.4     27.600     30.971
REMARK  18 active torsions:
REMARK  status: ('A' for Active; 'I' for Inactive)
REMARK    1  A    between atoms: C4_3  and  O4_10 
REMARK    2  A    between atoms: C5_4  and  C6_5 
REMARK    3  A    between atoms: O4_10  and  C1_13 
REMARK    4  A    between atoms: C3_15  and  O3_20 
REMARK    5  A    between atoms: C4_16  and  O4_21 
REMARK    6  A    between atoms: C5_17  and  C6_18 
REMARK    7  A    between atoms: O3_20  and  C2_50 
REMARK    8  A    between atoms: O4_21  and  C1_24 
REMARK    9  A    between atoms: C2_25  and  N2_32 
REMARK   10  A    between atoms: C3_26  and  O3_33 
REMARK   11  A    between atoms: C5_28  and  C6_29 
REMARK       I    between atoms: C7_30  and  N2_32 
REMARK   12  A    between atoms: O3_33  and  C1_38 
REMARK   13  A    between atoms: C5_42  and  C6_43 
REMARK   14  A    between atoms: C1_49  and  C2_50 
REMARK   15  A    between atoms: C5_53  and  N5_60 
REMARK   16  A    between atoms: C6_54  and  C7_55 
REMARK   17  A    between atoms: C7_55  and  C8_56 
REMARK   18  A    between atoms: C8_56  and  C9_57 
REMARK       I    between atoms: C10_58  and  N5_60 
ROOT
HETATM    1  C2  BGC J   1     254.489 268.309 208.385  1.00 33.73     0.244 C 
HETATM    2  C3  BGC J   1     255.203 268.650 209.686  1.00 34.22     0.217 C 
HETATM    3  C4  BGC J   1     254.258 269.416 210.626  1.00 35.62     0.181 C 
HETATM    4  C5  BGC J   1     252.998 268.586 210.843  1.00 33.72     0.181 C 
HETATM    5  C1  BGC J   1     253.137 267.637 208.564  1.00 35.29     0.303 C 
HETATM    6  O1  BGC J   1     252.338 267.662 207.374  1.00 22.52    -0.187 OA
HETATM    7  O2  BGC J   1     255.315 267.509 207.552  1.00 40.75    -0.215 OA
HETATM    8  O3  BGC J   1     256.351 269.468 209.422  1.00 32.08    -0.218 OA
HETATM    9  O5  BGC J   1     252.402 268.190 209.632  1.00 36.77    -0.324 OA
ENDROOT
BRANCH   3  10
HETATM   10  O4  BGC J   1     254.889 269.532 211.893  1.00 33.55    -0.326 OA
BRANCH  10  11
HETATM   11  C1  GAL J   2     255.070 270.815 212.489  1.00 29.50     0.270 C 
HETATM   12  C2  GAL J   2     256.482 271.296 212.265  1.00 27.02     0.238 C 
HETATM   13  C3  GAL J   2     256.657 272.795 212.556  1.00 23.05     0.183 C 
HETATM   14  O2  GAL J   2     257.355 270.605 213.150  1.00 31.87    -0.215 OA
HETATM   15  C4  GAL J   2     255.592 273.561 211.771  1.00 23.22     0.177 C 
HETATM   16  C5  GAL J   2     254.208 273.034 212.134  1.00 24.62     0.180 C 
HETATM   17  O5  GAL J   2     254.174 271.655 211.755  1.00 30.39    -0.326 OA
BRANCH  13  18
HETATM   18  O3  GAL J   2     257.943 273.125 212.017  1.00 25.06    -0.324 OA
BRANCH  18  19
HETATM   19  C2  SIA J   5     258.834 273.839 212.850  1.00 22.94     0.271 C 
HETATM   20  C3  SIA J   5     258.258 274.218 214.193  1.00 25.74     0.103 C 
HETATM   21  C4  SIA J   5     259.296 274.938 215.053  1.00 26.04     0.182 C 
HETATM   22  C5  SIA J   5     259.858 276.157 214.292  1.00 24.75     0.166 C 
HETATM   23  O4  SIA J   5     258.586 275.503 216.168  1.00 26.63    -0.221 OA
HETATM   24  C6  SIA J   5     260.365 275.677 212.936  1.00 22.50     0.176 C 
HETATM   25  O6  SIA J   5     259.296 275.026 212.192  1.00 22.65    -0.325 OA
BRANCH  19  26
HETATM   26  C1  SIA J   5     260.010 272.892 213.047  1.00 25.20     0.240 C 
HETATM   27  O1A SIA J   5     260.761 272.783 212.048  1.00 24.36    -0.644 OA
HETATM   28  O1B SIA J   5     260.092 272.289 214.140  1.00 23.37    -0.644 OA
ENDBRANCH  19  26
BRANCH  22  29
HETATM   29  N5  SIA J   5     260.880 276.752 215.140  1.00 21.56    -0.235 NA
HETATM   30  C10 SIA J   5     260.865 277.987 215.636  1.00 23.49     0.252 C 
HETATM   31  O10 SIA J   5     259.906 278.762 215.363  1.00 26.49    -0.271 OA
HETATM   32  C11 SIA J   5     262.115 278.290 216.466  1.00 20.70     0.100 C 
ENDBRANCH  22  29
BRANCH  24  33
HETATM   33  C7  SIA J   5     260.884 276.826 212.073  1.00 23.24     0.214 C 
HETATM   34  O7  SIA J   5     260.025 277.980 212.110  1.00 24.21    -0.218 OA
BRANCH  33  35
HETATM   35  C8  SIA J   5     260.968 276.296 210.645  1.00 24.66     0.218 C 
HETATM   36  O8  SIA J   5     262.329 276.212 210.281  1.00 20.98    -0.218 OA
BRANCH  35  37
HETATM   37  C9  SIA J   5     260.173 277.202 209.727  1.00 22.69     0.218 C 
HETATM   38  O9  SIA J   5     259.786 276.576 208.509  1.00 26.43    -0.218 OA
ENDBRANCH  35  37
ENDBRANCH  33  35
ENDBRANCH  24  33
ENDBRANCH  18  19
ENDBRANCH  13  18
BRANCH  15  39
HETATM   39  O4  GAL J   2     255.754 273.355 210.374  1.00 22.03    -0.327 OA
BRANCH  39  40
HETATM   40  C1  NGA J   3     256.240 274.493 209.687  1.00 22.91     0.262 C 
HETATM   41  C2  NGA J   3     255.513 274.558 208.337  1.00 21.55     0.192 C 
HETATM   42  C3  NGA J   3     255.881 275.835 207.650  1.00 19.57     0.178 C 
HETATM   43  C4  NGA J   3     255.722 277.084 208.519  1.00 18.76     0.211 C 
HETATM   44  C5  NGA J   3     256.457 276.870 209.826  1.00 22.49     0.184 C 
HETATM   45  O4  NGA J   3     254.351 277.386 208.710  1.00 22.74    -0.218 OA
HETATM   46  O5  NGA J   3     255.950 275.674 210.443  1.00 25.46    -0.327 OA
BRANCH  41  47
HETATM   47  N2  NGA J   3     255.817 273.298 207.684  1.00 24.00    -0.232 NA
HETATM   48  C7  NGA J   3     254.878 272.594 207.018  1.00 26.74     0.252 C 
HETATM   49  C8  NGA J   3     255.437 271.238 206.583  1.00 22.43     0.100 C 
HETATM   50  O7  NGA J   3     253.695 273.028 206.865  1.00 22.79    -0.271 OA
ENDBRANCH  41  47
BRANCH  42  51
HETATM   51  O3  NGA J   3     255.160 276.009 206.442  1.00 17.99    -0.327 OA
BRANCH  51  52
HETATM   52  C1  GAL J   4     255.978 276.022 205.294  1.00 14.14     0.270 C 
HETATM   53  C2  GAL J   4     256.752 277.321 205.279  1.00 12.92     0.241 C 
HETATM   54  C3  GAL J   4     257.735 277.371 204.115  1.00 11.17     0.220 C 
HETATM   55  O2  GAL J   4     255.896 278.444 205.245  1.00 13.46    -0.215 OA
HETATM   56  C4  GAL J   4     258.615 276.121 204.191  1.00 11.62     0.215 C 
HETATM   57  O3  GAL J   4     258.515 278.539 204.213  1.00 11.38    -0.218 OA
HETATM   58  O4  GAL J   4     259.486 276.210 205.310  1.00 11.09    -0.218 OA
HETATM   59  C5  GAL J   4     257.763 274.868 204.284  1.00 12.47     0.184 C 
HETATM   60  O5  GAL J   4     256.932 274.958 205.446  1.00 13.45    -0.326 OA
BRANCH  59  61
HETATM   61  C6  GAL J   4     258.579 273.620 204.519  1.00 11.95     0.215 C 
HETATM   62  O6  GAL J   4     259.690 273.496 203.656  1.00 15.73    -0.218 OA
ENDBRANCH  59  61
ENDBRANCH  51  52
ENDBRANCH  42  51
BRANCH  44  63
HETATM   63  C6  NGA J   3     256.329 278.044 210.768  1.00 23.49     0.215 C 
HETATM   64  O6  NGA J   3     257.300 279.030 210.515  1.00 36.93    -0.218 OA
ENDBRANCH  44  63
ENDBRANCH  39  40
ENDBRANCH  15  39
BRANCH  16  65
HETATM   65  C6  GAL J   2     253.130 273.776 211.322  1.00 29.12     0.214 C 
HETATM   66  O6  GAL J   2     252.584 272.900 210.334  1.00 34.44    -0.218 OA
ENDBRANCH  16  65
ENDBRANCH  10  11
ENDBRANCH   3  10
BRANCH   4  67
HETATM   67  C6  BGC J   1     251.979 269.158 211.837  1.00 30.61     0.214 C 
HETATM   68  O6  BGC J   1     252.208 268.738 213.153  1.00 38.23    -0.218 OA
ENDBRANCH   4  67
TORSDOF 18
ENDMDL
MODEL 4
REMARK VINA RESULT:      -6.3      2.237      9.869
REMARK  18 active torsions:
REMARK  status: ('A' for Active; 'I' for Inactive)
REMARK    1  A    between atoms: C4_3  and  O4_10 
REMARK    2  A    between atoms: C5_4  and  C6_5 
REMARK    3  A    between atoms: O4_10  and  C1_13 
REMARK    4  A    between atoms: C3_15  and  O3_20 
REMARK    5  A    between atoms: C4_16  and  O4_21 
REMARK    6  A    between atoms: C5_17  and  C6_18 
REMARK    7  A    between atoms: O3_20  and  C2_50 
REMARK    8  A    between atoms: O4_21  and  C1_24 
REMARK    9  A    between atoms: C2_25  and  N2_32 
REMARK   10  A    between atoms: C3_26  and  O3_33 
REMARK   11  A    between atoms: C5_28  and  C6_29 
REMARK       I    between atoms: C7_30  and  N2_32 
REMARK   12  A    between atoms: O3_33  and  C1_38 
REMARK   13  A    between atoms: C5_42  and  C6_43 
REMARK   14  A    between atoms: C1_49  and  C2_50 
REMARK   15  A    between atoms: C5_53  and  N5_60 
REMARK   16  A    between atoms: C6_54  and  C7_55 
REMARK   17  A    between atoms: C7_55  and  C8_56 
REMARK   18  A    between atoms: C8_56  and  C9_57 
REMARK       I    between atoms: C10_58  and  N5_60 
ROOT
HETATM    1  C2  BGC J   1     287.136 273.086 203.119  1.00 33.73     0.244 C 
HETATM    2  C3  BGC J   1     286.306 271.816 202.987  1.00 34.22     0.217 C 
HETATM    3  C4  BGC J   1     285.669 271.742 201.590  1.00 35.62     0.181 C 
HETATM    4  C5  BGC J   1     286.769 271.841 200.539  1.00 33.72     0.181 C 
HETATM    5  C1  BGC J   1     288.127 273.315 201.988  1.00 35.29     0.303 C 
HETATM    6  O1  BGC J   1     288.618 274.661 201.938  1.00 22.52    -0.187 OA
HETATM    7  O2  BGC J   1     287.818 273.116 204.365  1.00 40.75    -0.215 OA
HETATM    8  O3  BGC J   1     285.263 271.801 203.970  1.00 32.08    -0.218 OA
HETATM    9  O5  BGC J   1     287.593 272.965 200.731  1.00 36.77    -0.324 OA
ENDROOT
BRANCH   3  10
HETATM   10  O4  BGC J   1     285.081 270.459 201.438  1.00 33.55    -0.326 OA
BRANCH  10  11
HETATM   11  C1  GAL J   2     285.701 269.312 202.019  1.00 29.50     0.270 C 
HETATM   12  C2  GAL J   2     284.657 268.286 202.382  1.00 27.02     0.238 C 
HETATM   13  C3  GAL J   2     285.256 266.901 202.676  1.00 23.05     0.183 C 
HETATM   14  O2  GAL J   2     283.990 268.700 203.567  1.00 31.87    -0.215 OA
HETATM   15  C4  GAL J   2     286.152 266.510 201.500  1.00 23.22     0.177 C 
HETATM   16  C5  GAL J   2     287.206 267.587 201.276  1.00 24.62     0.180 C 
HETATM   17  O5  GAL J   2     286.508 268.795 200.957  1.00 30.39    -0.326 OA
BRANCH  13  18
HETATM   18  O3  GAL J   2     284.131 266.015 202.705  1.00 25.06    -0.324 OA
BRANCH  18  19
HETATM   19  C2  SIA J   5     283.941 265.243 203.873  1.00 22.94     0.271 C 
HETATM   20  C3  SIA J   5     282.701 265.601 204.658  1.00 25.74     0.103 C 
HETATM   21  C4  SIA J   5     282.538 264.689 205.873  1.00 26.04     0.182 C 
HETATM   22  C5  SIA J   5     283.813 264.734 206.742  1.00 24.75     0.166 C 
HETATM   23  O4  SIA J   5     281.519 265.280 206.697  1.00 26.63    -0.221 OA
HETATM   24  C6  SIA J   5     285.006 264.410 205.849  1.00 22.50     0.176 C 
HETATM   25  O6  SIA J   5     285.081 265.347 204.736  1.00 22.65    -0.325 OA
BRANCH  19  26
HETATM   26  C1  SIA J   5     283.831 263.811 203.368  1.00 25.20     0.240 C 
HETATM   27  O1A SIA J   5     284.892 263.349 202.885  1.00 24.36    -0.644 OA
HETATM   28  O1B SIA J   5     282.711 263.257 203.435  1.00 23.37    -0.644 OA
ENDBRANCH  19  26
BRANCH  22  29
HETATM   29  N5  SIA J   5     283.612 263.800 207.839  1.00 21.56    -0.235 NA
HETATM   30  C10 SIA J   5     283.412 264.121 209.115  1.00 23.49     0.252 C 
HETATM   31  O10 SIA J   5     283.403 265.335 209.463  1.00 26.49    -0.271 OA
HETATM   32  C11 SIA J   5     283.265 262.884 210.004  1.00 20.70     0.100 C 
ENDBRANCH  22  29
BRANCH  24  33
HETATM   33  C7  SIA J   5     286.333 264.494 206.602  1.00 23.24     0.214 C 
HETATM   34  O7  SIA J   5     286.612 265.820 207.088  1.00 24.21    -0.218 OA
BRANCH  33  35
HETATM   35  C8  SIA J   5     287.421 264.069 205.622  1.00 24.66     0.218 C 
HETATM   36  O8  SIA J   5     287.116 262.773 205.154  1.00 20.98    -0.218 OA
BRANCH  35  37
HETATM   37  C9  SIA J   5     288.770 264.141 206.308  1.00 22.69     0.218 C 
HETATM   38  O9  SIA J   5     288.867 263.306 207.456  1.00 26.43    -0.218 OA
ENDBRANCH  35  37
ENDBRANCH  33  35
ENDBRANCH  24  33
ENDBRANCH  18  19
ENDBRANCH  13  18
BRANCH  15  39
HETATM   39  O4  GAL J   2     285.394 266.424 200.300  1.00 22.03    -0.327 OA
BRANCH  39  40
HETATM   40  C1  NGA J   3     285.219 265.099 199.835  1.00 22.91     0.262 C 
HETATM   41  C2  NGA J   3     283.891 265.054 199.067  1.00 21.55     0.192 C 
HETATM   42  C3  NGA J   3     283.749 263.711 198.424  1.00 19.57     0.178 C 
HETATM   43  C4  NGA J   3     284.968 263.272 197.611  1.00 18.76     0.211 C 
HETATM   44  C5  NGA J   3     286.206 263.397 198.476  1.00 22.49     0.184 C 
HETATM   45  O4  NGA J   3     285.065 264.022 196.413  1.00 22.74    -0.218 OA
HETATM   46  O5  NGA J   3     286.293 264.751 198.953  1.00 25.46    -0.327 OA
BRANCH  41  47
HETATM   47  N2  NGA J   3     282.888 265.482 200.025  1.00 24.00    -0.232 NA
HETATM   48  C7  NGA J   3     281.973 266.428 199.725  1.00 26.74     0.252 C 
HETATM   49  C8  NGA J   3     281.161 266.796 200.969  1.00 22.43     0.100 C 
HETATM   50  O7  NGA J   3     281.893 266.944 198.570  1.00 22.79    -0.271 OA
ENDBRANCH  41  47
BRANCH  42  51
HETATM   51  O3  NGA J   3     282.591 263.638 197.609  1.00 17.99    -0.327 OA
BRANCH  51  52
HETATM   52  C1  GAL J   4     281.716 262.591 197.964  1.00 14.14     0.270 C 
HETATM   53  C2  GAL J   4     282.453 261.281 197.795  1.00 12.92     0.241 C 
HETATM   54  C3  GAL J   4     281.604 260.101 198.253  1.00 11.17     0.220 C 
HETATM   55  O2  GAL J   4     282.884 261.087 196.464  1.00 13.46    -0.215 OA
HETATM   56  C4  GAL J   4     281.148 260.380 199.687  1.00 11.62     0.215 C 
HETATM   57  O3  GAL J   4     282.373 258.923 198.192  1.00 11.38    -0.218 OA
HETATM   58  O4  GAL J   4     282.257 260.300 200.572  1.00 11.09    -0.218 OA
HETATM   59  C5  GAL J   4     280.492 261.744 199.787  1.00 12.47     0.184 C 
HETATM   60  O5  GAL J   4     281.428 262.741 199.364  1.00 13.45    -0.326 OA
BRANCH  59  61
HETATM   61  C6  GAL J   4     280.164 262.136 201.207  1.00 11.95     0.215 C 
HETATM   62  O6  GAL J   4     278.880 261.726 201.628  1.00 15.73    -0.218 OA
ENDBRANCH  59  61
ENDBRANCH  51  52
ENDBRANCH  42  51
BRANCH  44  63
HETATM   63  C6  NGA J   3     287.471 263.015 197.745  1.00 23.49     0.215 C 
HETATM   64  O6  NGA J   3     287.393 261.720 197.201  1.00 36.93    -0.218 OA
ENDBRANCH  44  63
ENDBRANCH  39  40
ENDBRANCH  15  39
BRANCH  16  65
HETATM   65  C6  GAL J   2     288.092 267.219 200.071  1.00 29.12     0.214 C 
HETATM   66  O6  GAL J   2     287.843 268.126 198.996  1.00 34.44    -0.218 OA
ENDBRANCH  16  65
ENDBRANCH  10  11
ENDBRANCH   3  10
BRANCH   4  67
HETATM   67  C6  BGC J   1     286.320 271.688 199.080  1.00 30.61     0.214 C 
HETATM   68  O6  BGC J   1     285.126 272.366 198.804  1.00 38.23    -0.218 OA
ENDBRANCH   4  67
TORSDOF 18
ENDMDL
MODEL 5
REMARK VINA RESULT:      -6.3     26.794     30.195
REMARK  18 active torsions:
REMARK  status: ('A' for Active; 'I' for Inactive)
REMARK    1  A    between atoms: C4_3  and  O4_10 
REMARK    2  A    between atoms: C5_4  and  C6_5 
REMARK    3  A    between atoms: O4_10  and  C1_13 
REMARK    4  A    between atoms: C3_15  and  O3_20 
REMARK    5  A    between atoms: C4_16  and  O4_21 
REMARK    6  A    between atoms: C5_17  and  C6_18 
REMARK    7  A    between atoms: O3_20  and  C2_50 
REMARK    8  A    between atoms: O4_21  and  C1_24 
REMARK    9  A    between atoms: C2_25  and  N2_32 
REMARK   10  A    between atoms: C3_26  and  O3_33 
REMARK   11  A    between atoms: C5_28  and  C6_29 
REMARK       I    between atoms: C7_30  and  N2_32 
REMARK   12  A    between atoms: O3_33  and  C1_38 
REMARK   13  A    between atoms: C5_42  and  C6_43 
REMARK   14  A    between atoms: C1_49  and  C2_50 
REMARK   15  A    between atoms: C5_53  and  N5_60 
REMARK   16  A    between atoms: C6_54  and  C7_55 
REMARK   17  A    between atoms: C7_55  and  C8_56 
REMARK   18  A    between atoms: C8_56  and  C9_57 
REMARK       I    between atoms: C10_58  and  N5_60 
ROOT
HETATM    1  C2  BGC J   1     252.197 268.359 210.793  1.00 33.73     0.244 C 
HETATM    2  C3  BGC J   1     253.519 269.097 210.633  1.00 34.22     0.217 C 
HETATM    3  C4  BGC J   1     254.535 268.214 209.890  1.00 35.62     0.181 C 
HETATM    4  C5  BGC J   1     253.933 267.783 208.558  1.00 33.72     0.181 C 
HETATM    5  C1  BGC J   1     251.650 267.757 209.508  1.00 35.29     0.303 C 
HETATM    6  O1  BGC J   1     250.629 266.778 209.740  1.00 22.52    -0.187 OA
HETATM    7  O2  BGC J   1     251.217 269.203 211.380  1.00 40.75    -0.215 OA
HETATM    8  O3  BGC J   1     254.058 269.436 211.919  1.00 32.08    -0.218 OA
HETATM    9  O5  BGC J   1     252.665 267.193 208.707  1.00 36.77    -0.324 OA
ENDROOT
BRANCH   3  10
HETATM   10  O4  BGC J   1     255.672 269.006 209.583  1.00 33.55    -0.326 OA
BRANCH  10  11
HETATM   11  C1  GAL J   2     255.652 270.412 209.822  1.00 29.50     0.270 C 
HETATM   12  C2  GAL J   2     257.040 270.903 210.148  1.00 27.02     0.238 C 
HETATM   13  C3  GAL J   2     257.169 272.432 210.068  1.00 23.05     0.183 C 
HETATM   14  O2  GAL J   2     257.360 270.538 211.485  1.00 31.87    -0.215 OA
HETATM   15  C4  GAL J   2     256.638 272.884 208.707  1.00 23.22     0.177 C 
HETATM   16  C5  GAL J   2     255.207 272.389 208.522  1.00 24.62     0.180 C 
HETATM   17  O5  GAL J   2     255.252 270.959 208.561  1.00 30.39    -0.326 OA
BRANCH  13  18
HETATM   18  O3  GAL J   2     258.578 272.684 210.111  1.00 25.06    -0.324 OA
BRANCH  18  19
HETATM   19  C2  SIA J   5     259.057 273.530 211.137  1.00 22.94     0.271 C 
HETATM   20  C3  SIA J   5     257.995 273.988 212.108  1.00 25.74     0.103 C 
HETATM   21  C4  SIA J   5     258.599 274.853 213.214  1.00 26.04     0.182 C 
HETATM   22  C5  SIA J   5     259.376 276.035 212.596  1.00 24.75     0.166 C 
HETATM   23  O4  SIA J   5     257.498 275.466 213.904  1.00 26.63    -0.221 OA
HETATM   24  C6  SIA J   5     260.381 275.471 211.598  1.00 22.50     0.176 C 
HETATM   25  O6  SIA J   5     259.703 274.682 210.578  1.00 22.65    -0.325 OA
BRANCH  19  26
HETATM   26  C1  SIA J   5     260.092 272.689 211.870  1.00 25.20     0.240 C 
HETATM   27  O1A SIA J   5     261.161 272.513 211.237  1.00 24.36    -0.644 OA
HETATM   28  O1B SIA J   5     259.775 272.222 212.987  1.00 23.37    -0.644 OA
ENDBRANCH  19  26
BRANCH  22  29
HETATM   29  N5  SIA J   5     259.973 276.773 213.699  1.00 21.56    -0.235 NA
HETATM   30  C10 SIA J   5     259.797 278.066 213.962  1.00 23.49     0.252 C 
HETATM   31  O10 SIA J   5     259.068 278.767 213.207  1.00 26.49    -0.271 OA
HETATM   32  C11 SIA J   5     260.599 278.518 215.185  1.00 20.70     0.100 C 
ENDBRANCH  22  29
BRANCH  24  33
HETATM   33  C7  SIA J   5     261.160 276.569 210.877  1.00 23.24     0.214 C 
HETATM   34  O7  SIA J   5     260.869 276.623 209.469  1.00 24.21    -0.218 OA
BRANCH  33  35
HETATM   35  C8  SIA J   5     262.641 276.263 211.081  1.00 24.66     0.218 C 
HETATM   36  O8  SIA J   5     263.124 275.614 209.925  1.00 20.98    -0.218 OA
BRANCH  35  37
HETATM   37  C9  SIA J   5     262.811 275.429 212.335  1.00 22.69     0.218 C 
HETATM   38  O9  SIA J   5     263.844 274.455 212.232  1.00 26.43    -0.218 OA
ENDBRANCH  35  37
ENDBRANCH  33  35
ENDBRANCH  24  33
ENDBRANCH  18  19
ENDBRANCH  13  18
BRANCH  15  39
HETATM   39  O4  GAL J   2     257.406 272.315 207.655  1.00 22.03    -0.327 OA
BRANCH  39  40
HETATM   40  C1  NGA J   3     258.073 273.274 206.857  1.00 22.91     0.262 C 
HETATM   41  C2  NGA J   3     257.946 272.825 205.396  1.00 21.55     0.192 C 
HETATM   42  C3  NGA J   3     258.499 273.896 204.510  1.00 19.57     0.178 C 
HETATM   43  C4  NGA J   3     257.948 275.294 204.795  1.00 18.76     0.211 C 
HETATM   44  C5  NGA J   3     258.107 275.593 206.272  1.00 22.49     0.184 C 
HETATM   45  O4  NGA J   3     256.603 275.397 204.362  1.00 22.74    -0.218 OA
HETATM   46  O5  NGA J   3     257.451 274.554 207.020  1.00 25.46    -0.327 OA
BRANCH  41  47
HETATM   47  N2  NGA J   3     258.544 271.503 205.355  1.00 24.00    -0.232 NA
HETATM   48  C7  NGA J   3     257.794 270.382 205.299  1.00 26.74     0.252 C 
HETATM   49  C8  NGA J   3     258.680 269.142 205.439  1.00 22.43     0.100 C 
HETATM   50  O7  NGA J   3     256.530 270.422 205.208  1.00 22.79    -0.271 OA
ENDBRANCH  41  47
BRANCH  42  51
HETATM   51  O3  NGA J   3     258.315 273.590 203.138  1.00 17.99    -0.327 OA
BRANCH  51  52
HETATM   52  C1  GAL J   4     256.965 273.613 202.731  1.00 14.14     0.270 C 
HETATM   53  C2  GAL J   4     256.893 274.257 201.364  1.00 12.92     0.241 C 
HETATM   54  C3  GAL J   4     255.474 274.233 200.811  1.00 11.17     0.220 C 
HETATM   55  O2  GAL J   4     257.391 275.579 201.379  1.00 13.46    -0.215 OA
HETATM   56  C4  GAL J   4     254.982 272.784 200.844  1.00 11.62     0.215 C 
HETATM   57  O3  GAL J   4     255.479 274.730 199.493  1.00 11.38    -0.218 OA
HETATM   58  O4  GAL J   4     255.684 272.013 199.878  1.00 11.09    -0.218 OA
HETATM   59  C5  GAL J   4     255.162 272.187 202.227  1.00 12.47     0.184 C 
HETATM   60  O5  GAL J   4     256.548 272.246 202.581  1.00 13.45    -0.326 OA
BRANCH  59  61
HETATM   61  C6  GAL J   4     254.840 270.713 202.277  1.00 11.95     0.215 C 
HETATM   62  O6  GAL J   4     253.833 270.382 203.211  1.00 15.73    -0.218 OA
ENDBRANCH  59  61
ENDBRANCH  51  52
ENDBRANCH  42  51
BRANCH  44  63
HETATM   63  C6  NGA J   3     257.558 276.946 206.657  1.00 23.49     0.215 C 
HETATM   64  O6  NGA J   3     258.210 277.476 207.785  1.00 36.93    -0.218 OA
ENDBRANCH  44  63
ENDBRANCH  39  40
ENDBRANCH  15  39
BRANCH  16  65
HETATM   65  C6  GAL J   2     254.676 272.809 207.140  1.00 29.12     0.214 C 
HETATM   66  O6  GAL J   2     253.827 271.785 206.619  1.00 34.44    -0.218 OA
ENDBRANCH  16  65
ENDBRANCH  10  11
ENDBRANCH   3  10
BRANCH   4  67
HETATM   67  C6  BGC J   1     254.851 266.969 207.638  1.00 30.61     0.214 C 
HETATM   68  O6  BGC J   1     255.257 267.683 206.504  1.00 38.23    -0.218 OA
ENDBRANCH   4  67
TORSDOF 18
ENDMDL
MODEL 6
REMARK VINA RESULT:      -6.3     23.948     27.600
REMARK  18 active torsions:
REMARK  status: ('A' for Active; 'I' for Inactive)
REMARK    1  A    between atoms: C4_3  and  O4_10 
REMARK    2  A    between atoms: C5_4  and  C6_5 
REMARK    3  A    between atoms: O4_10  and  C1_13 
REMARK    4  A    between atoms: C3_15  and  O3_20 
REMARK    5  A    between atoms: C4_16  and  O4_21 
REMARK    6  A    between atoms: C5_17  and  C6_18 
REMARK    7  A    between atoms: O3_20  and  C2_50 
REMARK    8  A    between atoms: O4_21  and  C1_24 
REMARK    9  A    between atoms: C2_25  and  N2_32 
REMARK   10  A    between atoms: C3_26  and  O3_33 
REMARK   11  A    between atoms: C5_28  and  C6_29 
REMARK       I    between atoms: C7_30  and  N2_32 
REMARK   12  A    between atoms: O3_33  and  C1_38 
REMARK   13  A    between atoms: C5_42  and  C6_43 
REMARK   14  A    between atoms: C1_49  and  C2_50 
REMARK   15  A    between atoms: C5_53  and  N5_60 
REMARK   16  A    between atoms: C6_54  and  C7_55 
REMARK   17  A    between atoms: C7_55  and  C8_56 
REMARK   18  A    between atoms: C8_56  and  C9_57 
REMARK       I    between atoms: C10_58  and  N5_60 
ROOT
HETATM    1  C2  BGC J   1     263.741 241.678 198.290  1.00 33.73     0.244 C 
HETATM    2  C3  BGC J   1     264.129 242.052 196.866  1.00 34.22     0.217 C 
HETATM    3  C4  BGC J   1     265.564 242.604 196.834  1.00 35.62     0.181 C 
HETATM    4  C5  BGC J   1     266.503 241.574 197.452  1.00 33.72     0.181 C 
HETATM    5  C1  BGC J   1     264.747 240.791 199.007  1.00 35.29     0.303 C 
HETATM    6  O1  BGC J   1     264.551 240.758 200.427  1.00 22.52    -0.187 OA
HETATM    7  O2  BGC J   1     262.459 241.067 198.319  1.00 40.75    -0.215 OA
HETATM    8  O3  BGC J   1     263.239 243.055 196.357  1.00 32.08    -0.218 OA
HETATM    9  O5  BGC J   1     266.079 241.159 198.727  1.00 36.77    -0.324 OA
ENDROOT
BRANCH   3  10
HETATM   10  O4  BGC J   1     265.955 242.745 195.477  1.00 33.55    -0.326 OA
BRANCH  10  11
HETATM   11  C1  GAL J   2     266.856 243.783 195.095  1.00 29.50     0.270 C 
HETATM   12  C2  GAL J   2     266.586 244.207 193.673  1.00 27.02     0.238 C 
HETATM   13  C3  GAL J   2     267.259 245.540 193.308  1.00 23.05     0.183 C 
HETATM   14  O2  GAL J   2     267.116 243.229 192.787  1.00 31.87    -0.215 OA
HETATM   15  C4  GAL J   2     266.872 246.575 194.365  1.00 23.22     0.177 C 
HETATM   16  C5  GAL J   2     267.257 246.065 195.749  1.00 24.62     0.180 C 
HETATM   17  O5  GAL J   2     266.515 244.861 195.972  1.00 30.39    -0.326 OA
BRANCH  13  18
HETATM   18  O3  GAL J   2     266.664 245.920 192.061  1.00 25.06    -0.324 OA
BRANCH  18  19
HETATM   19  C2  SIA J   5     267.535 246.257 191.001  1.00 22.94     0.271 C 
HETATM   20  C3  SIA J   5     267.538 245.266 189.862  1.00 25.74     0.103 C 
HETATM   21  C4  SIA J   5     268.462 245.727 188.735  1.00 26.04     0.182 C 
HETATM   22  C5  SIA J   5     269.879 245.989 189.287  1.00 24.75     0.166 C 
HETATM   23  O4  SIA J   5     268.621 244.607 187.849  1.00 26.63    -0.221 OA
HETATM   24  C6  SIA J   5     269.760 246.957 190.459  1.00 22.50     0.176 C 
HETATM   25  O6  SIA J   5     268.876 246.415 191.483  1.00 22.65    -0.325 OA
BRANCH  19  26
HETATM   26  C1  SIA J   5     267.026 247.604 190.505  1.00 25.20     0.240 C 
HETATM   27  O1A SIA J   5     267.394 248.584 191.196  1.00 24.36    -0.644 OA
HETATM   28  O1B SIA J   5     266.268 247.606 189.509  1.00 23.37    -0.644 OA
ENDBRANCH  19  26
BRANCH  22  29
HETATM   29  N5  SIA J   5     270.682 246.483 188.178  1.00 21.56    -0.235 NA
HETATM   30  C10 SIA J   5     271.804 245.934 187.718  1.00 23.49     0.252 C 
HETATM   31  O10 SIA J   5     272.268 244.898 188.269  1.00 26.49    -0.271 OA
HETATM   32  C11 SIA J   5     272.401 246.734 186.557  1.00 20.70     0.100 C 
ENDBRANCH  22  29
BRANCH  24  33
HETATM   33  C7  SIA J   5     271.108 247.232 191.123  1.00 23.24     0.214 C 
HETATM   34  O7  SIA J   5     271.890 246.037 191.305  1.00 24.21    -0.218 OA
BRANCH  33  35
HETATM   35  C8  SIA J   5     270.808 247.859 192.480  1.00 24.66     0.218 C 
HETATM   36  O8  SIA J   5     270.532 249.229 192.286  1.00 20.98    -0.218 OA
BRANCH  35  37
HETATM   37  C9  SIA J   5     271.981 247.625 193.411  1.00 22.69     0.218 C 
HETATM   38  O9  SIA J   5     271.602 247.114 194.683  1.00 26.43    -0.218 OA
ENDBRANCH  35  37
ENDBRANCH  33  35
ENDBRANCH  24  33
ENDBRANCH  18  19
ENDBRANCH  13  18
BRANCH  15  39
HETATM   39  O4  GAL J   2     265.464 246.773 194.380  1.00 22.03    -0.327 OA
BRANCH  39  40
HETATM   40  C1  NGA J   3     265.078 248.113 194.138  1.00 22.91     0.262 C 
HETATM   41  C2  NGA J   3     264.069 248.504 195.226  1.00 21.55     0.192 C 
HETATM   42  C3  NGA J   3     263.761 249.962 195.099  1.00 19.57     0.178 C 
HETATM   43  C4  NGA J   3     264.996 250.861 195.026  1.00 18.76     0.211 C 
HETATM   44  C5  NGA J   3     265.916 250.344 193.939  1.00 22.49     0.184 C 
HETATM   45  O4  NGA J   3     265.634 250.934 196.289  1.00 22.74    -0.218 OA
HETATM   46  O5  NGA J   3     266.225 248.968 194.220  1.00 25.46    -0.327 OA
BRANCH  41  47
HETATM   47  N2  NGA J   3     262.987 247.545 195.097  1.00 24.00    -0.232 NA
HETATM   48  C7  NGA J   3     262.448 246.929 196.171  1.00 26.74     0.252 C 
HETATM   49  C8  NGA J   3     261.454 245.855 195.724  1.00 22.43     0.100 C 
HETATM   50  O7  NGA J   3     262.806 247.207 197.355  1.00 22.79    -0.271 OA
ENDBRANCH  41  47
BRANCH  42  51
HETATM   51  O3  NGA J   3     262.914 250.413 196.143  1.00 17.99    -0.327 OA
BRANCH  51  52
HETATM   52  C1  GAL J   4     261.891 251.279 195.704  1.00 14.14     0.270 C 
HETATM   53  C2  GAL J   4     260.623 250.931 196.452  1.00 12.92     0.241 C 
HETATM   54  C3  GAL J   4     259.490 251.889 196.103  1.00 11.17     0.220 C 
HETATM   55  O2  GAL J   4     260.225 249.596 196.219  1.00 13.46    -0.215 OA
HETATM   56  C4  GAL J   4     259.989 253.314 196.352  1.00 11.62     0.215 C 
HETATM   57  O3  GAL J   4     258.373 251.602 196.911  1.00 11.38    -0.218 OA
HETATM   58  O4  GAL J   4     260.140 253.538 197.747  1.00 11.09    -0.218 OA
HETATM   59  C5  GAL J   4     261.303 253.557 195.634  1.00 12.47     0.184 C 
HETATM   60  O5  GAL J   4     262.268 252.608 196.100  1.00 13.45    -0.326 OA
BRANCH  59  61
HETATM   61  C6  GAL J   4     261.918 254.893 195.971  1.00 11.95     0.215 C 
HETATM   62  O6  GAL J   4     263.296 254.824 196.277  1.00 15.73    -0.218 OA
ENDBRANCH  59  61
ENDBRANCH  51  52
ENDBRANCH  42  51
BRANCH  44  63
HETATM   63  C6  NGA J   3     267.186 251.153 193.814  1.00 23.49     0.215 C 
HETATM   64  O6  NGA J   3     268.294 250.480 194.359  1.00 36.93    -0.218 OA
ENDBRANCH  44  63
ENDBRANCH  39  40
ENDBRANCH  15  39
BRANCH  16  65
HETATM   65  C6  GAL J   2     266.839 247.085 196.824  1.00 29.12     0.214 C 
HETATM   66  O6  GAL J   2     266.080 246.429 197.841  1.00 34.44    -0.218 OA
ENDBRANCH  16  65
ENDBRANCH  10  11
ENDBRANCH   3  10
BRANCH   4  67
HETATM   67  C6  BGC J   1     267.997 241.920 197.416  1.00 30.61     0.214 C 
HETATM   68  O6  BGC J   1     268.718 241.124 196.518  1.00 38.23    -0.218 OA
ENDBRANCH   4  67
TORSDOF 18
ENDMDL
MODEL 7
REMARK VINA RESULT:      -6.2     27.221     30.559
REMARK  18 active torsions:
REMARK  status: ('A' for Active; 'I' for Inactive)
REMARK    1  A    between atoms: C4_3  and  O4_10 
REMARK    2  A    between atoms: C5_4  and  C6_5 
REMARK    3  A    between atoms: O4_10  and  C1_13 
REMARK    4  A    between atoms: C3_15  and  O3_20 
REMARK    5  A    between atoms: C4_16  and  O4_21 
REMARK    6  A    between atoms: C5_17  and  C6_18 
REMARK    7  A    between atoms: O3_20  and  C2_50 
REMARK    8  A    between atoms: O4_21  and  C1_24 
REMARK    9  A    between atoms: C2_25  and  N2_32 
REMARK   10  A    between atoms: C3_26  and  O3_33 
REMARK   11  A    between atoms: C5_28  and  C6_29 
REMARK       I    between atoms: C7_30  and  N2_32 
REMARK   12  A    between atoms: O3_33  and  C1_38 
REMARK   13  A    between atoms: C5_42  and  C6_43 
REMARK   14  A    between atoms: C1_49  and  C2_50 
REMARK   15  A    between atoms: C5_53  and  N5_60 
REMARK   16  A    between atoms: C6_54  and  C7_55 
REMARK   17  A    between atoms: C7_55  and  C8_56 
REMARK   18  A    between atoms: C8_56  and  C9_57 
REMARK       I    between atoms: C10_58  and  N5_60 
ROOT
HETATM    1  C2  BGC J   1     254.475 267.731 208.245  1.00 33.73     0.244 C 
HETATM    2  C3  BGC J   1     255.260 268.315 209.412  1.00 34.22     0.217 C 
HETATM    3  C4  BGC J   1     254.349 269.205 210.273  1.00 35.62     0.181 C 
HETATM    4  C5  BGC J   1     253.142 268.389 210.721  1.00 33.72     0.181 C 
HETATM    5  C1  BGC J   1     253.167 267.061 208.636  1.00 35.29     0.303 C 
HETATM    6  O1  BGC J   1     252.290 266.854 207.520  1.00 22.52    -0.187 OA
HETATM    7  O2  BGC J   1     255.276 266.822 207.504  1.00 40.75    -0.215 OA
HETATM    8  O3  BGC J   1     256.353 269.108 208.928  1.00 32.08    -0.218 OA
HETATM    9  O5  BGC J   1     252.483 267.770 209.644  1.00 36.77    -0.324 OA
ENDROOT
BRANCH   3  10
HETATM   10  O4  BGC J   1     255.057 269.559 211.451  1.00 33.55    -0.326 OA
BRANCH  10  11
HETATM   11  C1  GAL J   2     255.247 270.933 211.788  1.00 29.50     0.270 C 
HETATM   12  C2  GAL J   2     256.716 271.272 211.772  1.00 27.02     0.238 C 
HETATM   13  C3  GAL J   2     256.980 272.787 211.773  1.00 23.05     0.183 C 
HETATM   14  O2  GAL J   2     257.327 270.753 212.947  1.00 31.87    -0.215 OA
HETATM   15  C4  GAL J   2     256.169 273.412 210.637  1.00 23.22     0.177 C 
HETATM   16  C5  GAL J   2     254.696 273.057 210.801  1.00 24.62     0.180 C 
HETATM   17  O5  GAL J   2     254.598 271.631 210.722  1.00 30.39    -0.326 OA
BRANCH  13  18
HETATM   18  O3  GAL J   2     258.372 272.915 211.461  1.00 25.06    -0.324 OA
BRANCH  18  19
HETATM   19  C2  SIA J   5     259.126 273.839 212.220  1.00 22.94     0.271 C 
HETATM   20  C3  SIA J   5     258.336 274.552 213.292  1.00 25.74     0.103 C 
HETATM   21  C4  SIA J   5     259.231 275.490 214.100  1.00 26.04     0.182 C 
HETATM   22  C5  SIA J   5     259.957 276.472 213.157  1.00 24.75     0.166 C 
HETATM   23  O4  SIA J   5     258.356 276.320 214.882  1.00 26.63    -0.221 OA
HETATM   24  C6  SIA J   5     260.678 275.657 212.088  1.00 22.50     0.176 C 
HETATM   25  O6  SIA J   5     259.735 274.815 211.365  1.00 22.65    -0.325 OA
BRANCH  19  26
HETATM   26  C1  SIA J   5     260.218 272.996 212.865  1.00 25.20     0.240 C 
HETATM   27  O1A SIA J   5     261.087 272.573 212.066  1.00 24.36    -0.644 OA
HETATM   28  O1B SIA J   5     260.126 272.769 214.092  1.00 23.37    -0.644 OA
ENDBRANCH  19  26
BRANCH  22  29
HETATM   29  N5  SIA J   5     260.833 277.286 213.986  1.00 21.56    -0.235 NA
HETATM   30  C10 SIA J   5     260.914 278.615 213.971  1.00 23.49     0.252 C 
HETATM   31  O10 SIA J   5     260.197 279.278 213.171  1.00 26.49    -0.271 OA
HETATM   32  C11 SIA J   5     261.962 279.139 214.955  1.00 20.70     0.100 C 
ENDBRANCH  22  29
BRANCH  24  33
HETATM   33  C7  SIA J   5     261.377 276.543 211.059  1.00 23.24     0.214 C 
HETATM   34  O7  SIA J   5     260.892 276.327 209.721  1.00 24.21    -0.218 OA
BRANCH  33  35
HETATM   35  C8  SIA J   5     262.863 276.202 211.125  1.00 24.66     0.218 C 
HETATM   36  O8  SIA J   5     263.201 275.462 209.973  1.00 20.98    -0.218 OA
BRANCH  35  37
HETATM   37  C9  SIA J   5     263.147 275.450 212.409  1.00 22.69     0.218 C 
HETATM   38  O9  SIA J   5     263.950 274.290 212.220  1.00 26.43    -0.218 OA
ENDBRANCH  35  37
ENDBRANCH  33  35
ENDBRANCH  24  33
ENDBRANCH  18  19
ENDBRANCH  13  18
BRANCH  15  39
HETATM   39  O4  GAL J   2     256.578 272.887 209.381  1.00 22.03    -0.327 OA
BRANCH  39  40
HETATM   40  C1  NGA J   3     257.125 273.860 208.511  1.00 22.91     0.262 C 
HETATM   41  C2  NGA J   3     256.291 273.845 207.223  1.00 21.55     0.192 C 
HETATM   42  C3  NGA J   3     256.737 274.970 206.344  1.00 19.57     0.178 C 
HETATM   43  C4  NGA J   3     256.798 276.328 207.044  1.00 18.76     0.211 C 
HETATM   44  C5  NGA J   3     257.620 276.191 208.310  1.00 22.49     0.184 C 
HETATM   45  O4  NGA J   3     255.493 276.818 207.295  1.00 22.74    -0.218 OA
HETATM   46  O5  NGA J   3     257.040 275.154 209.120  1.00 25.46    -0.327 OA
BRANCH  41  47
HETATM   47  N2  NGA J   3     256.391 272.484 206.726  1.00 24.00    -0.232 NA
HETATM   48  C7  NGA J   3     255.354 271.867 206.123  1.00 26.74     0.252 C 
HETATM   49  C8  NGA J   3     255.689 270.397 205.860  1.00 22.43     0.100 C 
HETATM   50  O7  NGA J   3     254.258 272.463 205.893  1.00 22.79    -0.271 OA
ENDBRANCH  41  47
BRANCH  42  51
HETATM   51  O3  NGA J   3     255.933 275.078 205.181  1.00 17.99    -0.327 OA
BRANCH  51  52
HETATM   52  C1  GAL J   4     256.648 275.495 204.039  1.00 14.14     0.270 C 
HETATM   53  C2  GAL J   4     256.435 274.469 202.947  1.00 12.92     0.241 C 
HETATM   54  C3  GAL J   4     257.099 274.897 201.644  1.00 11.17     0.220 C 
HETATM   55  O2  GAL J   4     256.889 273.189 203.332  1.00 13.46    -0.215 OA
HETATM   56  C4  GAL J   4     256.588 276.297 201.294  1.00 11.62     0.215 C 
HETATM   57  O3  GAL J   4     256.771 273.976 200.630  1.00 11.38    -0.218 OA
HETATM   58  O4  GAL J   4     255.219 276.231 200.915  1.00 11.09    -0.218 OA
HETATM   59  C5  GAL J   4     256.764 277.243 202.467  1.00 12.47     0.184 C 
HETATM   60  O5  GAL J   4     256.050 276.723 203.593  1.00 13.45    -0.326 OA
BRANCH  59  61
HETATM   61  C6  GAL J   4     256.135 278.594 202.232  1.00 11.95     0.215 C 
HETATM   62  O6  GAL J   4     255.095 278.902 203.137  1.00 15.73    -0.218 OA
ENDBRANCH  59  61
ENDBRANCH  51  52
ENDBRANCH  42  51
BRANCH  44  63
HETATM   63  C6  NGA J   3     257.710 277.481 209.091  1.00 23.49     0.215 C 
HETATM   64  O6  NGA J   3     258.278 278.518 208.329  1.00 36.93    -0.218 OA
ENDBRANCH  44  63
ENDBRANCH  39  40
ENDBRANCH  15  39
BRANCH  16  65
HETATM   65  C6  GAL J   2     253.875 273.653 209.642  1.00 29.12     0.214 C 
HETATM   66  O6  GAL J   2     253.182 272.609 208.956  1.00 34.44    -0.218 OA
ENDBRANCH  16  65
ENDBRANCH  10  11
ENDBRANCH   3  10
BRANCH   4  67
HETATM   67  C6  BGC J   1     252.169 269.096 211.673  1.00 30.61     0.214 C 
HETATM   68  O6  BGC J   1     251.579 270.232 211.104  1.00 38.23    -0.218 OA
ENDBRANCH   4  67
TORSDOF 18
ENDMDL
MODEL 8
REMARK VINA RESULT:      -6.2     27.182     30.547
REMARK  18 active torsions:
REMARK  status: ('A' for Active; 'I' for Inactive)
REMARK    1  A    between atoms: C4_3  and  O4_10 
REMARK    2  A    between atoms: C5_4  and  C6_5 
REMARK    3  A    between atoms: O4_10  and  C1_13 
REMARK    4  A    between atoms: C3_15  and  O3_20 
REMARK    5  A    between atoms: C4_16  and  O4_21 
REMARK    6  A    between atoms: C5_17  and  C6_18 
REMARK    7  A    between atoms: O3_20  and  C2_50 
REMARK    8  A    between atoms: O4_21  and  C1_24 
REMARK    9  A    between atoms: C2_25  and  N2_32 
REMARK   10  A    between atoms: C3_26  and  O3_33 
REMARK   11  A    between atoms: C5_28  and  C6_29 
REMARK       I    between atoms: C7_30  and  N2_32 
REMARK   12  A    between atoms: O3_33  and  C1_38 
REMARK   13  A    between atoms: C5_42  and  C6_43 
REMARK   14  A    between atoms: C1_49  and  C2_50 
REMARK   15  A    between atoms: C5_53  and  N5_60 
REMARK   16  A    between atoms: C6_54  and  C7_55 
REMARK   17  A    between atoms: C7_55  and  C8_56 
REMARK   18  A    between atoms: C8_56  and  C9_57 
REMARK       I    between atoms: C10_58  and  N5_60 
ROOT
HETATM    1  C2  BGC J   1     257.414 269.632 206.160  1.00 33.73     0.244 C 
HETATM    2  C3  BGC J   1     258.049 270.254 207.397  1.00 34.22     0.217 C 
HETATM    3  C4  BGC J   1     256.992 270.444 208.498  1.00 35.62     0.181 C 
HETATM    4  C5  BGC J   1     256.330 269.102 208.785  1.00 33.72     0.181 C 
HETATM    5  C1  BGC J   1     256.591 268.383 206.433  1.00 35.29     0.303 C 
HETATM    6  O1  BGC J   1     255.722 268.038 205.346  1.00 22.52    -0.187 OA
HETATM    7  O2  BGC J   1     258.399 269.351 205.176  1.00 40.75    -0.215 OA
HETATM    8  O3  BGC J   1     258.614 271.532 207.076  1.00 32.08    -0.218 OA
HETATM    9  O5  BGC J   1     255.836 268.488 207.619  1.00 36.77    -0.324 OA
ENDROOT
BRANCH   3  10
HETATM   10  O4  BGC J   1     257.658 270.830 209.691  1.00 33.55    -0.326 OA
BRANCH  10  11
HETATM   11  C1  GAL J   2     257.351 272.077 210.313  1.00 29.50     0.270 C 
HETATM   12  C2  GAL J   2     258.536 273.006 210.224  1.00 27.02     0.238 C 
HETATM   13  C3  GAL J   2     258.177 274.466 210.544  1.00 23.05     0.183 C 
HETATM   14  O2  GAL J   2     259.511 272.608 211.180  1.00 31.87    -0.215 OA
HETATM   15  C4  GAL J   2     256.987 274.866 209.672  1.00 23.22     0.177 C 
HETATM   16  C5  GAL J   2     255.832 273.897 209.900  1.00 24.62     0.180 C 
HETATM   17  O5  GAL J   2     256.291 272.600 209.507  1.00 30.39    -0.326 OA
BRANCH  13  18
HETATM   18  O3  GAL J   2     259.320 275.223 210.129  1.00 25.06    -0.324 OA
BRANCH  18  19
HETATM   19  C2  SIA J   5     259.796 276.219 211.012  1.00 22.94     0.271 C 
HETATM   20  C3  SIA J   5     259.162 276.187 212.382  1.00 25.74     0.103 C 
HETATM   21  C4  SIA J   5     259.766 277.256 213.291  1.00 26.04     0.182 C 
HETATM   22  C5  SIA J   5     259.650 278.644 212.625  1.00 24.75     0.166 C 
HETATM   23  O4  SIA J   5     258.918 277.339 214.449  1.00 26.63    -0.221 OA
HETATM   24  C6  SIA J   5     260.270 278.555 211.234  1.00 22.50     0.176 C 
HETATM   25  O6  SIA J   5     259.611 277.523 210.445  1.00 22.65    -0.325 OA
BRANCH  19  26
HETATM   26  C1  SIA J   5     261.287 275.938 211.131  1.00 25.20     0.240 C 
HETATM   27  O1A SIA J   5     261.962 276.283 210.132  1.00 24.36    -0.644 OA
HETATM   28  O1B SIA J   5     261.687 275.360 212.166  1.00 23.37    -0.644 OA
ENDBRANCH  19  26
BRANCH  22  29
HETATM   29  N5  SIA J   5     260.299 279.596 213.513  1.00 21.56    -0.235 NA
HETATM   30  C10 SIA J   5     259.746 280.697 214.020  1.00 23.49     0.252 C 
HETATM   31  O10 SIA J   5     258.557 280.997 213.720  1.00 26.49    -0.271 OA
HETATM   32  C11 SIA J   5     260.727 281.482 214.894  1.00 20.70     0.100 C 
ENDBRANCH  22  29
BRANCH  24  33
HETATM   33  C7  SIA J   5     260.146 279.866 210.461  1.00 23.24     0.214 C 
HETATM   34  O7  SIA J   5     259.567 279.686 209.155  1.00 24.21    -0.218 OA
BRANCH  33  35
HETATM   35  C8  SIA J   5     261.557 280.428 210.322  1.00 24.66     0.218 C 
HETATM   36  O8  SIA J   5     262.452 279.546 210.963  1.00 20.98    -0.218 OA
BRANCH  35  37
HETATM   37  C9  SIA J   5     261.598 281.827 210.902  1.00 22.69     0.218 C 
HETATM   38  O9  SIA J   5     260.313 282.421 211.041  1.00 26.43    -0.218 OA
ENDBRANCH  35  37
ENDBRANCH  33  35
ENDBRANCH  24  33
ENDBRANCH  18  19
ENDBRANCH  13  18
BRANCH  15  39
HETATM   39  O4  GAL J   2     257.325 274.780 208.294  1.00 22.03    -0.327 OA
BRANCH  39  40
HETATM   40  C1  NGA J   3     257.359 276.035 207.640  1.00 22.91     0.262 C 
HETATM   41  C2  NGA J   3     256.658 275.866 206.286  1.00 21.55     0.192 C 
HETATM   42  C3  NGA J   3     256.532 277.207 205.635  1.00 19.57     0.178 C 
HETATM   43  C4  NGA J   3     255.926 278.287 206.534  1.00 18.76     0.211 C 
HETATM   44  C5  NGA J   3     256.690 278.322 207.842  1.00 22.49     0.184 C 
HETATM   45  O4  NGA J   3     254.541 278.060 206.720  1.00 22.74    -0.218 OA
HETATM   46  O5  NGA J   3     256.657 277.007 208.424  1.00 25.46    -0.327 OA
BRANCH  41  47
HETATM   47  N2  NGA J   3     257.402 274.823 205.603  1.00 24.00    -0.232 NA
HETATM   48  C7  NGA J   3     258.591 275.065 205.012  1.00 26.74     0.252 C 
HETATM   49  C8  NGA J   3     259.057 273.835 204.232  1.00 22.43     0.100 C 
HETATM   50  O7  NGA J   3     259.157 276.198 205.079  1.00 22.79    -0.271 OA
ENDBRANCH  41  47
BRANCH  42  51
HETATM   51  O3  NGA J   3     255.796 277.138 204.425  1.00 17.99    -0.327 OA
BRANCH  51  52
HETATM   52  C1  GAL J   4     256.272 278.011 203.425  1.00 14.14     0.270 C 
HETATM   53  C2  GAL J   4     255.099 278.807 202.895  1.00 12.92     0.241 C 
HETATM   54  C3  GAL J   4     255.548 279.845 201.874  1.00 11.17     0.220 C 
HETATM   55  O2  GAL J   4     254.104 277.972 202.341  1.00 13.46    -0.215 OA
HETATM   56  C4  GAL J   4     256.640 280.699 202.522  1.00 11.62     0.215 C 
HETATM   57  O3  GAL J   4     254.445 280.640 201.503  1.00 11.38    -0.218 OA
HETATM   58  O4  GAL J   4     256.076 281.516 203.539  1.00 11.09    -0.218 OA
HETATM   59  C5  GAL J   4     257.737 279.823 203.098  1.00 12.47     0.184 C 
HETATM   60  O5  GAL J   4     257.163 278.938 204.066  1.00 13.45    -0.326 OA
BRANCH  59  61
HETATM   61  C6  GAL J   4     258.760 280.604 203.885  1.00 11.95     0.215 C 
HETATM   62  O6  GAL J   4     258.702 280.376 205.278  1.00 15.73    -0.218 OA
ENDBRANCH  59  61
ENDBRANCH  51  52
ENDBRANCH  42  51
BRANCH  44  63
HETATM   63  C6  NGA J   3     256.141 279.341 208.813  1.00 23.49     0.215 C 
HETATM   64  O6  NGA J   3     255.829 278.765 210.058  1.00 36.93    -0.218 OA
ENDBRANCH  44  63
ENDBRANCH  39  40
ENDBRANCH  15  39
BRANCH  16  65
HETATM   65  C6  GAL J   2     254.640 274.272 208.999  1.00 29.12     0.214 C 
HETATM   66  O6  GAL J   2     254.288 273.156 208.180  1.00 34.44    -0.218 OA
ENDBRANCH  16  65
ENDBRANCH  10  11
ENDBRANCH   3  10
BRANCH   4  67
HETATM   67  C6  BGC J   1     255.310 269.086 209.930  1.00 30.61     0.214 C 
HETATM   68  O6  BGC J   1     254.273 270.010 209.748  1.00 38.23    -0.218 OA
ENDBRANCH   4  67
TORSDOF 18
ENDMDL
MODEL 9
REMARK VINA RESULT:      -6.2     27.615     30.847
REMARK  18 active torsions:
REMARK  status: ('A' for Active; 'I' for Inactive)
REMARK    1  A    between atoms: C4_3  and  O4_10 
REMARK    2  A    between atoms: C5_4  and  C6_5 
REMARK    3  A    between atoms: O4_10  and  C1_13 
REMARK    4  A    between atoms: C3_15  and  O3_20 
REMARK    5  A    between atoms: C4_16  and  O4_21 
REMARK    6  A    between atoms: C5_17  and  C6_18 
REMARK    7  A    between atoms: O3_20  and  C2_50 
REMARK    8  A    between atoms: O4_21  and  C1_24 
REMARK    9  A    between atoms: C2_25  and  N2_32 
REMARK   10  A    between atoms: C3_26  and  O3_33 
REMARK   11  A    between atoms: C5_28  and  C6_29 
REMARK       I    between atoms: C7_30  and  N2_32 
REMARK   12  A    between atoms: O3_33  and  C1_38 
REMARK   13  A    between atoms: C5_42  and  C6_43 
REMARK   14  A    between atoms: C1_49  and  C2_50 
REMARK   15  A    between atoms: C5_53  and  N5_60 
REMARK   16  A    between atoms: C6_54  and  C7_55 
REMARK   17  A    between atoms: C7_55  and  C8_56 
REMARK   18  A    between atoms: C8_56  and  C9_57 
REMARK       I    between atoms: C10_58  and  N5_60 
ROOT
HETATM    1  C2  BGC J   1     261.071 273.083 213.173  1.00 33.73     0.244 C 
HETATM    2  C3  BGC J   1     260.900 273.953 211.934  1.00 34.22     0.217 C 
HETATM    3  C4  BGC J   1     260.037 275.182 212.263  1.00 35.62     0.181 C 
HETATM    4  C5  BGC J   1     260.670 275.932 213.429  1.00 33.72     0.181 C 
HETATM    5  C1  BGC J   1     261.532 273.834 214.413  1.00 35.29     0.303 C 
HETATM    6  O1  BGC J   1     261.332 273.090 215.623  1.00 22.52    -0.187 OA
HETATM    7  O2  BGC J   1     261.954 272.002 212.912  1.00 40.75    -0.215 OA
HETATM    8  O3  BGC J   1     260.260 273.207 210.890  1.00 32.08    -0.218 OA
HETATM    9  O5  BGC J   1     260.917 275.097 214.533  1.00 36.77    -0.324 OA
ENDROOT
BRANCH   3  10
HETATM   10  O4  BGC J   1     260.075 276.061 211.149  1.00 33.55    -0.326 OA
BRANCH  10  11
HETATM   11  C1  GAL J   2     258.882 276.345 210.419  1.00 29.50     0.270 C 
HETATM   12  C2  GAL J   2     258.942 275.701 209.056  1.00 27.02     0.238 C 
HETATM   13  C3  GAL J   2     257.575 275.656 208.355  1.00 23.05     0.183 C 
HETATM   14  O2  GAL J   2     259.803 276.463 208.220  1.00 31.87    -0.215 OA
HETATM   15  C4  GAL J   2     256.567 275.022 209.314  1.00 23.22     0.177 C 
HETATM   16  C5  GAL J   2     256.547 275.799 210.626  1.00 24.62     0.180 C 
HETATM   17  O5  GAL J   2     257.859 275.705 211.188  1.00 30.39    -0.326 OA
BRANCH  13  18
HETATM   18  O3  GAL J   2     257.763 274.772 207.244  1.00 25.06    -0.324 OA
BRANCH  18  19
HETATM   19  C2  SIA J   5     257.376 275.239 205.968  1.00 22.94     0.271 C 
HETATM   20  C3  SIA J   5     256.644 276.559 205.987  1.00 25.74     0.103 C 
HETATM   21  C4  SIA J   5     256.307 277.021 204.570  1.00 26.04     0.182 C 
HETATM   22  C5  SIA J   5     255.515 275.923 203.829  1.00 24.75     0.166 C 
HETATM   23  O4  SIA J   5     255.378 278.110 204.701  1.00 26.63    -0.221 OA
HETATM   24  C6  SIA J   5     256.312 274.625 203.912  1.00 22.50     0.176 C 
HETATM   25  O6  SIA J   5     256.561 274.265 205.302  1.00 22.65    -0.325 OA
BRANCH  19  26
HETATM   26  C1  SIA J   5     258.686 275.391 205.206  1.00 25.20     0.240 C 
HETATM   27  O1A SIA J   5     259.091 276.574 205.102  1.00 24.36    -0.644 OA
HETATM   28  O1B SIA J   5     259.200 274.357 204.725  1.00 23.37    -0.644 OA
ENDBRANCH  19  26
BRANCH  22  29
HETATM   29  N5  SIA J   5     255.286 276.403 202.476  1.00 21.56    -0.235 NA
HETATM   30  C10 SIA J   5     254.101 276.628 201.913  1.00 23.49     0.252 C 
HETATM   31  O10 SIA J   5     253.044 276.403 202.565  1.00 26.49    -0.271 OA
HETATM   32  C11 SIA J   5     254.232 277.103 200.464  1.00 20.70     0.100 C 
ENDBRANCH  22  29
BRANCH  24  33
HETATM   33  C7  SIA J   5     255.579 273.453 203.264  1.00 23.24     0.214 C 
HETATM   34  O7  SIA J   5     254.175 273.432 203.582  1.00 24.21    -0.218 OA
BRANCH  33  35
HETATM   35  C8  SIA J   5     256.240 272.181 203.786  1.00 24.66     0.218 C 
HETATM   36  O8  SIA J   5     257.462 272.003 203.104  1.00 20.98    -0.218 OA
BRANCH  35  37
HETATM   37  C9  SIA J   5     255.292 271.012 203.603  1.00 22.69     0.218 C 
HETATM   38  O9  SIA J   5     254.869 270.428 204.829  1.00 26.43    -0.218 OA
ENDBRANCH  35  37
ENDBRANCH  33  35
ENDBRANCH  24  33
ENDBRANCH  18  19
ENDBRANCH  13  18
BRANCH  15  39
HETATM   39  O4  GAL J   2     256.950 273.691 209.635  1.00 22.03    -0.327 OA
BRANCH  39  40
HETATM   40  C1  NGA J   3     256.147 272.706 209.012  1.00 22.91     0.262 C 
HETATM   41  C2  NGA J   3     255.605 271.790 210.118  1.00 21.55     0.192 C 
HETATM   42  C3  NGA J   3     254.624 270.834 209.517  1.00 19.57     0.178 C 
HETATM   43  C4  NGA J   3     253.547 271.498 208.657  1.00 18.76     0.211 C 
HETATM   44  C5  NGA J   3     254.217 272.393 207.635  1.00 22.49     0.184 C 
HETATM   45  O4  NGA J   3     252.622 272.199 209.469  1.00 22.74    -0.218 OA
HETATM   46  O5  NGA J   3     255.053 273.333 208.332  1.00 25.46    -0.327 OA
BRANCH  41  47
HETATM   47  N2  NGA J   3     256.783 271.261 210.780  1.00 24.00    -0.232 NA
HETATM   48  C7  NGA J   3     256.862 271.160 212.123  1.00 26.74     0.252 C 
HETATM   49  C8  NGA J   3     258.271 270.734 212.543  1.00 22.43     0.100 C 
HETATM   50  O7  NGA J   3     255.887 271.455 212.878  1.00 22.79    -0.271 OA
ENDBRANCH  41  47
BRANCH  42  51
HETATM   51  O3  NGA J   3     254.004 270.027 210.504  1.00 17.99    -0.327 OA
BRANCH  51  52
HETATM   52  C1  GAL J   4     253.936 268.663 210.156  1.00 14.14     0.270 C 
HETATM   53  C2  GAL J   4     252.479 268.279 210.026  1.00 12.92     0.241 C 
HETATM   54  C3  GAL J   4     252.322 266.838 209.556  1.00 11.17     0.220 C 
HETATM   55  O2  GAL J   4     251.772 268.481 211.232  1.00 13.46    -0.215 OA
HETATM   56  C4  GAL J   4     253.127 266.675 208.265  1.00 11.62     0.215 C 
HETATM   57  O3  GAL J   4     250.958 266.567 209.333  1.00 11.38    -0.218 OA
HETATM   58  O4  GAL J   4     252.502 267.394 207.211  1.00 11.09    -0.218 OA
HETATM   59  C5  GAL J   4     254.554 267.156 208.457  1.00 12.47     0.184 C 
HETATM   60  O5  GAL J   4     254.530 268.531 208.854  1.00 13.45    -0.326 OA
BRANCH  59  61
HETATM   61  C6  GAL J   4     255.348 267.165 207.174  1.00 11.95     0.215 C 
HETATM   62  O6  GAL J   4     256.185 268.294 207.030  1.00 15.73    -0.218 OA
ENDBRANCH  59  61
ENDBRANCH  51  52
ENDBRANCH  42  51
BRANCH  44  63
HETATM   63  C6  NGA J   3     253.228 273.121 206.756  1.00 23.49     0.215 C 
HETATM   64  O6  NGA J   3     253.506 274.498 206.680  1.00 36.93    -0.218 OA
ENDBRANCH  44  63
ENDBRANCH  39  40
ENDBRANCH  15  39
BRANCH  16  65
HETATM   65  C6  GAL J   2     255.560 275.147 211.612  1.00 29.12     0.214 C 
HETATM   66  O6  GAL J   2     256.256 274.740 212.791  1.00 34.44    -0.218 OA
ENDBRANCH  16  65
ENDBRANCH  10  11
ENDBRANCH   3  10
BRANCH   4  67
HETATM   67  C6  BGC J   1     259.989 277.246 213.831  1.00 30.61     0.214 C 
HETATM   68  O6  BGC J   1     258.638 277.080 214.163  1.00 38.23    -0.218 OA
ENDBRANCH   4  67
TORSDOF 18
ENDMDL
