MODEL 1
REMARK VINA RESULT:      -6.8      0.000      0.000
REMARK  18 active torsions:
REMARK  status: ('A' for Active; 'I' for Inactive)
REMARK    1  A    between atoms: C4_4162  and  O4_4169 
REMARK    2  A    between atoms: C5_4163  and  C6_4164 
REMARK    3  A    between atoms: O4_4169  and  C1_4172 
REMARK    4  A    between atoms: C3_4174  and  O3_4179 
REMARK    5  A    between atoms: C4_4175  and  O4_4180 
REMARK    6  A    between atoms: C5_4176  and  C6_4177 
REMARK    7  A    between atoms: O3_4179  and  C2_4209 
REMARK    8  A    between atoms: O4_4180  and  C1_4183 
REMARK    9  A    between atoms: C2_4184  and  N2_4191 
REMARK   10  A    between atoms: C3_4185  and  O3_4192 
REMARK   11  A    between atoms: C5_4187  and  C6_4188 
REMARK       I    between atoms: C7_4189  and  N2_4191 
REMARK   12  A    between atoms: O3_4192  and  C1_4197 
REMARK   13  A    between atoms: C5_4201  and  C6_4202 
REMARK   14  A    between atoms: C1_4208  and  C2_4209 
REMARK   15  A    between atoms: C5_4212  and  N5_4219 
REMARK   16  A    between atoms: C6_4213  and  C7_4214 
REMARK   17  A    between atoms: C7_4214  and  C8_4215 
REMARK   18  A    between atoms: C8_4215  and  C9_4216 
REMARK       I    between atoms: C10_4217  and  N5_4219 
ROOT
HETATM    1  C2  BGC B   1     275.372 256.949 193.179  1.00 23.00     0.244 C 
HETATM    2  C3  BGC B   1     275.994 256.933 194.567  1.00 22.71     0.217 C 
HETATM    3  C4  BGC B   1     275.883 255.509 195.141  1.00 19.49     0.181 C 
HETATM    4  C5  BGC B   1     276.580 254.541 194.171  1.00 21.23     0.181 C 
HETATM    5  C1  BGC B   1     276.076 255.913 192.291  1.00 23.10     0.303 C 
HETATM    6  O1  BGC B   1     275.395 255.846 191.040  1.00 30.29    -0.187 OA
HETATM    7  O2  BGC B   1     275.403 258.220 192.548  1.00 24.46    -0.215 OA
HETATM    8  O3  BGC B   1     275.362 257.886 195.400  1.00 20.09    -0.218 OA
HETATM    9  O5  BGC B   1     275.882 254.641 192.924  1.00 23.03    -0.324 OA
ENDROOT
BRANCH   3  10
HETATM   10  O4  BGC B   1     276.563 255.477 196.404  1.00 18.81    -0.326 OA
BRANCH  10  11
HETATM   11  C1  GAL B   2     277.925 255.883 196.412  1.00 18.29     0.270 C 
HETATM   12  C2  GAL B   2     278.211 256.603 197.690  1.00 21.36     0.238 C 
HETATM   13  C3  GAL B   2     279.700 256.863 197.891  1.00 18.89     0.183 C 
HETATM   14  O2  GAL B   2     277.474 257.810 197.743  1.00 21.67    -0.215 OA
HETATM   15  C4  GAL B   2     280.534 255.608 197.621  1.00 18.64     0.177 C 
HETATM   16  C5  GAL B   2     280.166 255.047 196.256  1.00 18.34     0.180 C 
HETATM   17  O5  GAL B   2     278.752 254.734 196.269  1.00 18.97    -0.326 OA
BRANCH  13  18
HETATM   18  O3  GAL B   2     279.801 257.291 199.242  1.00 18.86    -0.324 OA
BRANCH  18  19
HETATM   19  C2  SIA B   5     280.454 258.525 199.492  1.00 20.42     0.271 C 
HETATM   20  C3  SIA B   5     279.608 259.538 200.216  1.00 21.15     0.103 C 
HETATM   21  C4  SIA B   5     280.380 260.851 200.417  1.00 19.84     0.182 C 
HETATM   22  C5  SIA B   5     280.984 261.338 199.086  1.00 19.94     0.166 C 
HETATM   23  O4  SIA B   5     279.424 261.847 200.821  1.00 25.26    -0.221 OA
HETATM   24  C6  SIA B   5     281.774 260.219 198.431  1.00 20.62     0.176 C 
HETATM   25  O6  SIA B   5     280.939 259.037 198.247  1.00 20.84    -0.325 OA
BRANCH  19  26
HETATM   26  C1  SIA B   5     281.650 258.130 200.342  1.00 20.04     0.240 C 
HETATM   27  O1A SIA B   5     281.501 258.234 201.578  1.00 18.86    -0.644 OA
HETATM   28  O1B SIA B   5     282.705 257.779 199.767  1.00 20.53    -0.644 OA
ENDBRANCH  19  26
BRANCH  22  29
HETATM   29  N5  SIA B   5     281.727 262.565 199.289  1.00 20.57    -0.235 NA
HETATM   30  C10 SIA B   5     281.672 263.678 198.529  1.00 24.13     0.252 C 
HETATM   31  C11 SIA B   5     282.578 264.814 199.062  1.00 22.96     0.100 C 
HETATM   32  O10 SIA B   5     280.929 263.773 197.508  1.00 26.68    -0.271 OA
ENDBRANCH  22  29
BRANCH  24  33
HETATM   33  C7  SIA B   5     282.322 260.539 197.047  1.00 19.74     0.214 C 
HETATM   34  O7  SIA B   5     281.928 259.579 196.060  1.00 22.57    -0.218 OA
BRANCH  33  35
HETATM   35  C8  SIA B   5     283.871 260.495 197.172  1.00 19.54     0.218 C 
HETATM   36  O8  SIA B   5     284.414 261.439 196.275  1.00 19.73    -0.218 OA
BRANCH  35  37
HETATM   37  C9  SIA B   5     284.310 259.117 196.710  1.00 20.72     0.218 C 
HETATM   38  O9  SIA B   5     285.250 258.509 197.560  1.00 21.01    -0.218 OA
ENDBRANCH  35  37
ENDBRANCH  33  35
ENDBRANCH  24  33
ENDBRANCH  18  19
ENDBRANCH  13  18
BRANCH  15  39
HETATM   39  O4  GAL B   2     280.188 254.653 198.635  1.00 21.34    -0.327 OA
BRANCH  39  40
HETATM   40  C1  NGA B   3     281.170 254.626 199.682  1.00 19.80     0.262 C 
HETATM   41  C2  NGA B   3     280.480 254.306 201.023  1.00 20.60     0.192 C 
HETATM   42  C3  NGA B   3     281.530 254.139 202.121  1.00 18.92     0.178 C 
HETATM   43  C4  NGA B   3     282.569 253.103 201.697  1.00 18.56     0.211 C 
HETATM   44  C5  NGA B   3     283.121 253.490 200.320  1.00 20.83     0.184 C 
HETATM   45  O4  NGA B   3     282.023 251.794 201.624  1.00 25.94    -0.218 OA
HETATM   46  O5  NGA B   3     282.042 253.520 199.361  1.00 19.30    -0.327 OA
BRANCH  41  47
HETATM   47  N2  NGA B   3     279.548 255.416 201.241  1.00 20.03    -0.232 NA
HETATM   48  C7  NGA B   3     278.284 255.260 201.685  1.00 20.86     0.252 C 
HETATM   49  C8  NGA B   3     277.442 256.551 201.690  1.00 25.36     0.100 C 
HETATM   50  O7  NGA B   3     277.853 254.133 201.999  1.00 33.51    -0.271 OA
ENDBRANCH  41  47
BRANCH  42  51
HETATM   51  O3  NGA B   3     280.917 253.715 203.360  1.00 18.48    -0.327 OA
BRANCH  51  52
HETATM   52  C1  GAL B   4     281.085 254.601 204.454  1.00 17.31     0.270 C 
HETATM   53  C2  GAL B   4     281.403 253.869 205.750  1.00 14.28     0.241 C 
HETATM   54  C3  GAL B   4     281.627 254.840 206.900  1.00 14.14     0.220 C 
HETATM   55  O2  GAL B   4     280.317 253.013 206.092  1.00 16.82    -0.215 OA
HETATM   56  C4  GAL B   4     282.672 255.872 206.509  1.00 13.05     0.215 C 
HETATM   57  O3  GAL B   4     282.004 254.147 208.073  1.00 14.59    -0.218 OA
HETATM   58  C5  GAL B   4     282.341 256.473 205.149  1.00 15.75     0.184 C 
HETATM   59  O4  GAL B   4     283.957 255.260 206.519  1.00 13.46    -0.218 OA
HETATM   60  O5  GAL B   4     282.176 255.481 204.123  1.00 16.29    -0.326 OA
BRANCH  58  61
HETATM   61  C6  GAL B   4     283.400 257.483 204.694  1.00 16.07     0.215 C 
HETATM   62  O6  GAL B   4     282.992 258.837 204.800  1.00 17.63    -0.218 OA
ENDBRANCH  58  61
ENDBRANCH  51  52
ENDBRANCH  42  51
BRANCH  44  63
HETATM   63  C6  NGA B   3     284.159 252.470 199.829  1.00 23.22     0.215 C 
HETATM   64  O6  NGA B   3     283.661 251.837 198.662  1.00 34.06    -0.218 OA
ENDBRANCH  44  63
ENDBRANCH  39  40
ENDBRANCH  15  39
BRANCH  16  65
HETATM   65  C6  GAL B   2     280.909 253.822 195.823  1.00 20.92     0.214 C 
HETATM   66  O6  GAL B   2     280.556 253.428 194.495  1.00 21.47    -0.218 OA
ENDBRANCH  16  65
ENDBRANCH  10  11
ENDBRANCH   3  10
BRANCH   4  67
HETATM   67  C6  BGC B   1     276.405 253.089 194.636  1.00 24.07     0.214 C 
HETATM   68  O6  BGC B   1     274.995 252.741 194.593  1.00 26.88    -0.218 OA
ENDBRANCH   4  67
TORSDOF 18
ENDMDL
MODEL 2
REMARK VINA RESULT:      -6.4      8.809     15.056
REMARK  18 active torsions:
REMARK  status: ('A' for Active; 'I' for Inactive)
REMARK    1  A    between atoms: C4_4162  and  O4_4169 
REMARK    2  A    between atoms: C5_4163  and  C6_4164 
REMARK    3  A    between atoms: O4_4169  and  C1_4172 
REMARK    4  A    between atoms: C3_4174  and  O3_4179 
REMARK    5  A    between atoms: C4_4175  and  O4_4180 
REMARK    6  A    between atoms: C5_4176  and  C6_4177 
REMARK    7  A    between atoms: O3_4179  and  C2_4209 
REMARK    8  A    between atoms: O4_4180  and  C1_4183 
REMARK    9  A    between atoms: C2_4184  and  N2_4191 
REMARK   10  A    between atoms: C3_4185  and  O3_4192 
REMARK   11  A    between atoms: C5_4187  and  C6_4188 
REMARK       I    between atoms: C7_4189  and  N2_4191 
REMARK   12  A    between atoms: O3_4192  and  C1_4197 
REMARK   13  A    between atoms: C5_4201  and  C6_4202 
REMARK   14  A    between atoms: C1_4208  and  C2_4209 
REMARK   15  A    between atoms: C5_4212  and  N5_4219 
REMARK   16  A    between atoms: C6_4213  and  C7_4214 
REMARK   17  A    between atoms: C7_4214  and  C8_4215 
REMARK   18  A    between atoms: C8_4215  and  C9_4216 
REMARK       I    between atoms: C10_4217  and  N5_4219 
ROOT
HETATM    1  C2  BGC B   1     267.844 264.415 191.201  1.00 23.00     0.244 C 
HETATM    2  C3  BGC B   1     269.180 264.063 190.564  1.00 22.71     0.217 C 
HETATM    3  C4  BGC B   1     268.917 263.239 189.291  1.00 19.49     0.181 C 
HETATM    4  C5  BGC B   1     268.018 264.066 188.357  1.00 21.23     0.181 C 
HETATM    5  C1  BGC B   1     266.980 265.180 190.188  1.00 23.10     0.303 C 
HETATM    6  O1  BGC B   1     265.686 265.383 190.753  1.00 30.29    -0.187 OA
HETATM    7  O2  BGC B   1     267.956 265.169 192.398  1.00 24.46    -0.215 OA
HETATM    8  O3  BGC B   1     269.993 263.363 191.485  1.00 20.09    -0.218 OA
HETATM    9  O5  BGC B   1     266.798 264.301 189.070  1.00 23.03    -0.324 OA
ENDROOT
BRANCH   3  10
HETATM   10  O4  BGC B   1     270.173 263.001 188.640  1.00 18.81    -0.326 OA
BRANCH  10  11
HETATM   11  C1  GAL B   2     270.557 261.644 188.457  1.00 18.29     0.270 C 
HETATM   12  C2  GAL B   2     271.426 261.226 189.598  1.00 21.36     0.238 C 
HETATM   13  C3  GAL B   2     271.686 259.723 189.610  1.00 18.89     0.183 C 
HETATM   14  O2  GAL B   2     272.641 261.951 189.575  1.00 21.67    -0.215 OA
HETATM   15  C4  GAL B   2     270.395 258.924 189.416  1.00 18.64     0.177 C 
HETATM   16  C5  GAL B   2     269.674 259.434 188.177  1.00 18.34     0.180 C 
HETATM   17  O5  GAL B   2     269.387 260.839 188.375  1.00 18.97    -0.326 OA
BRANCH  13  18
HETATM   18  O3  GAL B   2     272.278 259.481 190.879  1.00 18.86    -0.324 OA
BRANCH  18  19
HETATM   19  C2  SIA B   5     273.313 258.513 190.947  1.00 20.42     0.271 C 
HETATM   20  C3  SIA B   5     273.550 257.769 189.660  1.00 21.15     0.103 C 
HETATM   21  C4  SIA B   5     274.662 256.723 189.831  1.00 19.84     0.182 C 
HETATM   22  C5  SIA B   5     274.391 255.833 191.058  1.00 19.94     0.166 C 
HETATM   23  O4  SIA B   5     274.614 255.861 188.680  1.00 25.26    -0.221 OA
HETATM   24  C6  SIA B   5     274.122 256.695 192.279  1.00 20.62     0.176 C 
HETATM   25  O6  SIA B   5     273.023 257.620 192.026  1.00 20.84    -0.325 OA
BRANCH  19  26
HETATM   26  C1  SIA B   5     274.540 259.329 191.320  1.00 20.04     0.240 C 
HETATM   27  O1A SIA B   5     274.452 260.000 192.370  1.00 18.86    -0.644 OA
HETATM   28  O1B SIA B   5     275.525 259.318 190.547  1.00 20.53    -0.644 OA
ENDBRANCH  19  26
BRANCH  22  29
HETATM   29  N5  SIA B   5     275.454 254.864 191.224  1.00 20.57    -0.235 NA
HETATM   30  C10 SIA B   5     275.381 253.536 190.995  1.00 24.13     0.252 C 
HETATM   31  C11 SIA B   5     276.725 252.810 191.244  1.00 22.96     0.100 C 
HETATM   32  O10 SIA B   5     274.323 252.969 190.593  1.00 26.68    -0.271 OA
ENDBRANCH  22  29
BRANCH  24  33
HETATM   33  C7  SIA B   5     273.720 255.931 193.533  1.00 19.74     0.214 C 
HETATM   34  O7  SIA B   5     272.475 256.382 194.081  1.00 22.57    -0.218 OA
BRANCH  33  35
HETATM   35  C8  SIA B   5     274.835 256.201 194.583  1.00 19.54     0.218 C 
HETATM   36  O8  SIA B   5     275.860 256.942 193.959  1.00 19.73    -0.218 OA
BRANCH  35  37
HETATM   37  C9  SIA B   5     275.412 254.851 194.969  1.00 20.72     0.218 C 
HETATM   38  O9  SIA B   5     274.636 253.761 194.538  1.00 21.01    -0.218 OA
ENDBRANCH  35  37
ENDBRANCH  33  35
ENDBRANCH  24  33
ENDBRANCH  18  19
ENDBRANCH  13  18
BRANCH  15  39
HETATM   39  O4  GAL B   2     269.580 259.165 190.572  1.00 21.34    -0.327 OA
BRANCH  39  40
HETATM   40  C1  NGA B   3     269.378 257.960 191.328  1.00 19.80     0.262 C 
HETATM   41  C2  NGA B   3     267.891 257.559 191.263  1.00 20.60     0.192 C 
HETATM   42  C3  NGA B   3     267.687 256.208 191.947  1.00 18.92     0.178 C 
HETATM   43  C4  NGA B   3     268.635 255.171 191.349  1.00 18.56     0.211 C 
HETATM   44  C5  NGA B   3     270.066 255.719 191.401  1.00 20.83     0.184 C 
HETATM   45  O4  NGA B   3     268.309 254.859 190.003  1.00 25.94    -0.218 OA
HETATM   46  O5  NGA B   3     270.139 256.944 190.640  1.00 19.30    -0.327 OA
BRANCH  41  47
HETATM   47  N2  NGA B   3     267.173 258.671 191.893  1.00 20.03    -0.232 NA
HETATM   48  C7  NGA B   3     267.095 258.855 193.228  1.00 20.86     0.252 C 
HETATM   49  C8  NGA B   3     266.159 260.001 193.662  1.00 25.36     0.100 C 
HETATM   50  O7  NGA B   3     267.699 258.099 194.012  1.00 33.51    -0.271 OA
ENDBRANCH  41  47
BRANCH  42  51
HETATM   51  O3  NGA B   3     266.325 255.751 191.790  1.00 18.48    -0.327 OA
BRANCH  51  52
HETATM   52  C1  GAL B   4     265.606 255.558 192.997  1.00 17.31     0.270 C 
HETATM   53  C2  GAL B   4     264.113 255.797 192.828  1.00 14.28     0.241 C 
HETATM   54  C3  GAL B   4     263.355 255.539 194.122  1.00 14.14     0.220 C 
HETATM   55  O2  GAL B   4     263.888 257.150 192.441  1.00 16.82    -0.215 OA
HETATM   56  C4  GAL B   4     263.696 254.156 194.653  1.00 13.05     0.215 C 
HETATM   57  O3  GAL B   4     261.963 255.684 193.924  1.00 14.59    -0.218 OA
HETATM   58  C5  GAL B   4     265.207 253.957 194.682  1.00 15.75     0.184 C 
HETATM   59  O4  GAL B   4     263.048 253.177 193.850  1.00 13.46    -0.218 OA
HETATM   60  O5  GAL B   4     265.828 254.197 193.409  1.00 16.29    -0.326 OA
BRANCH  58  61
HETATM   61  C6  GAL B   4     265.592 252.554 195.164  1.00 16.07     0.215 C 
HETATM   62  O6  GAL B   4     265.296 252.310 196.529  1.00 17.63    -0.218 OA
ENDBRANCH  58  61
ENDBRANCH  51  52
ENDBRANCH  42  51
BRANCH  44  63
HETATM   63  C6  NGA B   3     271.066 254.726 190.791  1.00 23.22     0.215 C 
HETATM   64  O6  NGA B   3     271.491 253.826 191.801  1.00 34.06    -0.218 OA
ENDBRANCH  44  63
ENDBRANCH  39  40
ENDBRANCH  15  39
BRANCH  16  65
HETATM   65  C6  GAL B   2     268.393 258.742 187.828  1.00 20.92     0.214 C 
HETATM   66  O6  GAL B   2     268.567 257.329 187.713  1.00 21.47    -0.218 OA
ENDBRANCH  16  65
ENDBRANCH  10  11
ENDBRANCH   3  10
BRANCH   4  67
HETATM   67  C6  BGC B   1     267.630 263.250 187.116  1.00 24.07     0.214 C 
HETATM   68  O6  BGC B   1     268.340 263.773 185.961  1.00 26.88    -0.218 OA
ENDBRANCH   4  67
TORSDOF 18
ENDMDL
MODEL 3
REMARK VINA RESULT:      -6.4      4.578     12.028
REMARK  18 active torsions:
REMARK  status: ('A' for Active; 'I' for Inactive)
REMARK    1  A    between atoms: C4_4162  and  O4_4169 
REMARK    2  A    between atoms: C5_4163  and  C6_4164 
REMARK    3  A    between atoms: O4_4169  and  C1_4172 
REMARK    4  A    between atoms: C3_4174  and  O3_4179 
REMARK    5  A    between atoms: C4_4175  and  O4_4180 
REMARK    6  A    between atoms: C5_4176  and  C6_4177 
REMARK    7  A    between atoms: O3_4179  and  C2_4209 
REMARK    8  A    between atoms: O4_4180  and  C1_4183 
REMARK    9  A    between atoms: C2_4184  and  N2_4191 
REMARK   10  A    between atoms: C3_4185  and  O3_4192 
REMARK   11  A    between atoms: C5_4187  and  C6_4188 
REMARK       I    between atoms: C7_4189  and  N2_4191 
REMARK   12  A    between atoms: O3_4192  and  C1_4197 
REMARK   13  A    between atoms: C5_4201  and  C6_4202 
REMARK   14  A    between atoms: C1_4208  and  C2_4209 
REMARK   15  A    between atoms: C5_4212  and  N5_4219 
REMARK   16  A    between atoms: C6_4213  and  C7_4214 
REMARK   17  A    between atoms: C7_4214  and  C8_4215 
REMARK   18  A    between atoms: C8_4215  and  C9_4216 
REMARK       I    between atoms: C10_4217  and  N5_4219 
ROOT
HETATM    1  C2  BGC B   1     278.635 256.029 201.115  1.00 23.00     0.244 C 
HETATM    2  C3  BGC B   1     278.548 256.002 199.597  1.00 22.71     0.217 C 
HETATM    3  C4  BGC B   1     279.918 255.590 199.031  1.00 19.49     0.181 C 
HETATM    4  C5  BGC B   1     280.294 254.221 199.624  1.00 21.23     0.181 C 
HETATM    5  C1  BGC B   1     279.078 254.650 201.626  1.00 23.10     0.303 C 
HETATM    6  O1  BGC B   1     279.284 254.731 203.035  1.00 30.29    -0.187 OA
HETATM    7  O2  BGC B   1     277.428 256.411 201.756  1.00 24.46    -0.215 OA
HETATM    8  O3  BGC B   1     278.135 257.263 199.106  1.00 20.09    -0.218 OA
HETATM    9  O5  BGC B   1     280.364 254.399 201.044  1.00 23.03    -0.324 OA
ENDROOT
BRANCH   3  10
HETATM   10  O4  BGC B   1     279.800 255.465 197.607  1.00 18.81    -0.326 OA
BRANCH  10  11
HETATM   11  C1  GAL B   2     278.693 254.721 197.115  1.00 18.29     0.270 C 
HETATM   12  C2  GAL B   2     278.278 255.283 195.794  1.00 21.36     0.238 C 
HETATM   13  C3  GAL B   2     277.257 254.401 195.082  1.00 18.89     0.183 C 
HETATM   14  O2  GAL B   2     277.783 256.599 195.959  1.00 21.67    -0.215 OA
HETATM   15  C4  GAL B   2     277.679 252.929 195.088  1.00 18.64     0.177 C 
HETATM   16  C5  GAL B   2     277.998 252.507 196.515  1.00 18.34     0.180 C 
HETATM   17  O5  GAL B   2     279.068 253.353 197.001  1.00 18.97    -0.326 OA
BRANCH  13  18
HETATM   18  O3  GAL B   2     277.193 254.932 193.766  1.00 18.86    -0.324 OA
BRANCH  18  19
HETATM   19  C2  SIA B   5     275.911 255.246 193.247  1.00 20.42     0.271 C 
HETATM   20  C3  SIA B   5     274.778 255.015 194.211  1.00 21.15     0.103 C 
HETATM   21  C4  SIA B   5     273.428 255.348 193.558  1.00 19.84     0.182 C 
HETATM   22  C5  SIA B   5     273.286 254.632 192.202  1.00 19.94     0.166 C 
HETATM   23  O4  SIA B   5     272.401 254.815 194.413  1.00 25.26    -0.221 OA
HETATM   24  C6  SIA B   5     274.504 254.903 191.338  1.00 20.62     0.176 C 
HETATM   25  O6  SIA B   5     275.727 254.512 192.032  1.00 20.84    -0.325 OA
BRANCH  19  26
HETATM   26  C1  SIA B   5     276.017 256.721 192.899  1.00 20.04     0.240 C 
HETATM   27  O1A SIA B   5     275.523 257.516 193.727  1.00 18.86    -0.644 OA
HETATM   28  O1B SIA B   5     276.538 257.045 191.807  1.00 20.53    -0.644 OA
ENDBRANCH  19  26
BRANCH  22  29
HETATM   29  N5  SIA B   5     272.020 254.969 191.584  1.00 20.57    -0.235 NA
HETATM   30  C10 SIA B   5     271.006 254.124 191.307  1.00 24.13     0.252 C 
HETATM   31  C11 SIA B   5     269.785 254.837 190.676  1.00 22.96     0.100 C 
HETATM   32  O10 SIA B   5     271.055 252.886 191.569  1.00 26.68    -0.271 OA
ENDBRANCH  22  29
BRANCH  24  33
HETATM   33  C7  SIA B   5     274.539 254.150 190.015  1.00 19.74     0.214 C 
HETATM   34  O7  SIA B   5     275.518 253.104 189.999  1.00 22.57    -0.218 OA
BRANCH  33  35
HETATM   35  C8  SIA B   5     274.931 255.194 188.931  1.00 19.54     0.218 C 
HETATM   36  O8  SIA B   5     274.574 256.475 189.401  1.00 19.73    -0.218 OA
BRANCH  35  37
HETATM   37  C9  SIA B   5     274.080 254.899 187.709  1.00 20.72     0.218 C 
HETATM   38  O9  SIA B   5     274.181 255.873 186.702  1.00 21.01    -0.218 OA
ENDBRANCH  35  37
ENDBRANCH  33  35
ENDBRANCH  24  33
ENDBRANCH  18  19
ENDBRANCH  13  18
BRANCH  15  39
HETATM   39  O4  GAL B   2     278.867 252.835 194.289  1.00 21.34    -0.327 OA
BRANCH  39  40
HETATM   40  C1  NGA B   3     278.604 252.176 193.040  1.00 19.80     0.262 C 
HETATM   41  C2  NGA B   3     279.778 252.423 192.073  1.00 20.60     0.192 C 
HETATM   42  C3  NGA B   3     279.575 251.616 190.792  1.00 18.92     0.178 C 
HETATM   43  C4  NGA B   3     279.352 250.144 191.131  1.00 18.56     0.211 C 
HETATM   44  C5  NGA B   3     278.215 250.039 192.155  1.00 20.83     0.184 C 
HETATM   45  O4  NGA B   3     280.515 249.534 191.669  1.00 25.94    -0.218 OA
HETATM   46  O5  NGA B   3     278.576 250.766 193.350  1.00 19.30    -0.327 OA
BRANCH  41  47
HETATM   47  N2  NGA B   3     279.805 253.875 191.876  1.00 20.03    -0.232 NA
HETATM   48  C7  NGA B   3     280.778 254.681 192.353  1.00 20.86     0.252 C 
HETATM   49  C8  NGA B   3     280.515 256.187 192.156  1.00 25.36     0.100 C 
HETATM   50  O7  NGA B   3     281.762 254.206 192.952  1.00 33.51    -0.271 OA
ENDBRANCH  41  47
BRANCH  42  51
HETATM   51  O3  NGA B   3     280.725 251.732 189.922  1.00 18.48    -0.327 OA
BRANCH  51  52
HETATM   52  C1  GAL B   4     280.430 251.862 188.541  1.00 17.31     0.270 C 
HETATM   53  C2  GAL B   4     280.693 250.578 187.768  1.00 14.28     0.241 C 
HETATM   54  C3  GAL B   4     280.325 250.725 186.299  1.00 14.14     0.220 C 
HETATM   55  O2  GAL B   4     282.076 250.247 187.852  1.00 16.82    -0.215 OA
HETATM   56  C4  GAL B   4     278.898 251.233 186.172  1.00 13.05     0.215 C 
HETATM   57  O3  GAL B   4     280.496 249.499 185.616  1.00 14.59    -0.218 OA
HETATM   58  C5  GAL B   4     278.687 252.450 187.064  1.00 15.75     0.184 C 
HETATM   59  O4  GAL B   4     277.998 250.178 186.493  1.00 13.46    -0.218 OA
HETATM   60  O5  GAL B   4     279.035 252.205 188.436  1.00 16.29    -0.326 OA
BRANCH  58  61
HETATM   61  C6  GAL B   4     277.244 252.963 187.004  1.00 16.07     0.215 C 
HETATM   62  O6  GAL B   4     277.019 253.940 186.001  1.00 17.63    -0.218 OA
ENDBRANCH  58  61
ENDBRANCH  51  52
ENDBRANCH  42  51
BRANCH  44  63
HETATM   63  C6  NGA B   3     277.957 248.579 192.553  1.00 23.22     0.215 C 
HETATM   64  O6  NGA B   3     276.557 248.360 192.610  1.00 34.06    -0.218 OA
ENDBRANCH  44  63
ENDBRANCH  39  40
ENDBRANCH  15  39
BRANCH  16  65
HETATM   65  C6  GAL B   2     278.411 251.081 196.704  1.00 20.92     0.214 C 
HETATM   66  O6  GAL B   2     277.983 250.568 197.967  1.00 21.47    -0.218 OA
ENDBRANCH  16  65
ENDBRANCH  10  11
ENDBRANCH   3  10
BRANCH   4  67
HETATM   67  C6  BGC B   1     281.704 253.808 199.182  1.00 24.07     0.214 C 
HETATM   68  O6  BGC B   1     282.510 253.527 200.357  1.00 26.88    -0.218 OA
ENDBRANCH   4  67
TORSDOF 18
ENDMDL
MODEL 4
REMARK VINA RESULT:      -6.3     15.211     19.622
REMARK  18 active torsions:
REMARK  status: ('A' for Active; 'I' for Inactive)
REMARK    1  A    between atoms: C4_4162  and  O4_4169 
REMARK    2  A    between atoms: C5_4163  and  C6_4164 
REMARK    3  A    between atoms: O4_4169  and  C1_4172 
REMARK    4  A    between atoms: C3_4174  and  O3_4179 
REMARK    5  A    between atoms: C4_4175  and  O4_4180 
REMARK    6  A    between atoms: C5_4176  and  C6_4177 
REMARK    7  A    between atoms: O3_4179  and  C2_4209 
REMARK    8  A    between atoms: O4_4180  and  C1_4183 
REMARK    9  A    between atoms: C2_4184  and  N2_4191 
REMARK   10  A    between atoms: C3_4185  and  O3_4192 
REMARK   11  A    between atoms: C5_4187  and  C6_4188 
REMARK       I    between atoms: C7_4189  and  N2_4191 
REMARK   12  A    between atoms: O3_4192  and  C1_4197 
REMARK   13  A    between atoms: C5_4201  and  C6_4202 
REMARK   14  A    between atoms: C1_4208  and  C2_4209 
REMARK   15  A    between atoms: C5_4212  and  N5_4219 
REMARK   16  A    between atoms: C6_4213  and  C7_4214 
REMARK   17  A    between atoms: C7_4214  and  C8_4215 
REMARK   18  A    between atoms: C8_4215  and  C9_4216 
REMARK       I    between atoms: C10_4217  and  N5_4219 
ROOT
HETATM    1  C2  BGC B   1     263.706 241.784 198.178  1.00 23.00     0.244 C 
HETATM    2  C3  BGC B   1     264.048 242.242 196.769  1.00 22.71     0.217 C 
HETATM    3  C4  BGC B   1     265.545 242.593 196.713  1.00 19.49     0.181 C 
HETATM    4  C5  BGC B   1     266.348 241.353 197.140  1.00 21.23     0.181 C 
HETATM    5  C1  BGC B   1     264.592 240.588 198.555  1.00 23.10     0.303 C 
HETATM    6  O1  BGC B   1     264.356 240.258 199.923  1.00 30.29    -0.187 OA
HETATM    7  O2  BGC B   1     262.341 241.442 198.360  1.00 24.46    -0.215 OA
HETATM    8  O3  BGC B   1     263.236 243.341 196.400  1.00 20.09    -0.218 OA
HETATM    9  O5  BGC B   1     265.947 241.051 198.482  1.00 23.03    -0.324 OA
ENDROOT
BRANCH   3  10
HETATM   10  O4  BGC B   1     265.881 242.924 195.358  1.00 18.81    -0.326 OA
BRANCH  10  11
HETATM   11  C1  GAL B   2     266.720 244.054 195.160  1.00 18.29     0.270 C 
HETATM   12  C2  GAL B   2     266.642 244.473 193.728  1.00 21.36     0.238 C 
HETATM   13  C3  GAL B   2     267.318 245.817 193.477  1.00 18.89     0.183 C 
HETATM   14  O2  GAL B   2     267.190 243.467 192.897  1.00 21.67    -0.215 OA
HETATM   15  C4  GAL B   2     266.896 246.864 194.511  1.00 18.64     0.177 C 
HETATM   16  C5  GAL B   2     267.104 246.298 195.908  1.00 18.34     0.180 C 
HETATM   17  O5  GAL B   2     266.301 245.100 196.029  1.00 18.97    -0.326 OA
BRANCH  13  18
HETATM   18  O3  GAL B   2     266.913 246.172 192.162  1.00 18.86    -0.324 OA
BRANCH  18  19
HETATM   19  C2  SIA B   5     267.918 246.238 191.162  1.00 20.42     0.271 C 
HETATM   20  C3  SIA B   5     267.627 245.413 189.937  1.00 21.15     0.103 C 
HETATM   21  C4  SIA B   5     268.776 245.517 188.923  1.00 19.84     0.182 C 
HETATM   22  C5  SIA B   5     270.129 245.225 189.600  1.00 19.94     0.166 C 
HETATM   23  O4  SIA B   5     268.575 244.480 187.946  1.00 25.26    -0.221 OA
HETATM   24  C6  SIA B   5     270.286 246.081 190.843  1.00 20.62     0.176 C 
HETATM   25  O6  SIA B   5     269.167 245.876 191.756  1.00 20.84    -0.325 OA
BRANCH  19  26
HETATM   26  C1  SIA B   5     267.970 247.714 190.806  1.00 20.04     0.240 C 
HETATM   27  O1A SIA B   5     268.414 248.475 191.691  1.00 18.86    -0.644 OA
HETATM   28  O1B SIA B   5     267.531 248.078 189.691  1.00 20.53    -0.644 OA
ENDBRANCH  19  26
BRANCH  22  29
HETATM   29  N5  SIA B   5     271.208 245.346 188.641  1.00 20.57    -0.235 NA
HETATM   30  C10 SIA B   5     271.494 246.419 187.876  1.00 24.13     0.252 C 
HETATM   31  C11 SIA B   5     272.744 246.208 186.988  1.00 22.96     0.100 C 
HETATM   32  O10 SIA B   5     270.816 247.488 187.915  1.00 26.68    -0.271 OA
ENDBRANCH  22  29
BRANCH  24  33
HETATM   33  C7  SIA B   5     271.533 245.798 191.669  1.00 19.74     0.214 C 
HETATM   34  O7  SIA B   5     271.230 245.431 193.021  1.00 22.57    -0.218 OA
BRANCH  33  35
HETATM   35  C8  SIA B   5     272.346 247.123 191.700  1.00 19.54     0.218 C 
HETATM   36  O8  SIA B   5     271.584 248.124 191.061  1.00 19.73    -0.218 OA
BRANCH  35  37
HETATM   37  C9  SIA B   5     273.594 246.892 190.867  1.00 20.72     0.218 C 
HETATM   38  O9  SIA B   5     274.204 245.648 191.096  1.00 21.01    -0.218 OA
ENDBRANCH  35  37
ENDBRANCH  33  35
ENDBRANCH  24  33
ENDBRANCH  18  19
ENDBRANCH  13  18
BRANCH  15  39
HETATM   39  O4  GAL B   2     265.497 247.111 194.303  1.00 21.34    -0.327 OA
BRANCH  39  40
HETATM   40  C1  NGA B   3     265.232 248.516 194.162  1.00 19.80     0.262 C 
HETATM   41  C2  NGA B   3     264.201 248.951 195.221  1.00 20.60     0.192 C 
HETATM   42  C3  NGA B   3     264.012 250.466 195.172  1.00 18.92     0.178 C 
HETATM   43  C4  NGA B   3     265.363 251.166 195.299  1.00 18.56     0.211 C 
HETATM   44  C5  NGA B   3     266.319 250.592 194.247  1.00 20.83     0.184 C 
HETATM   45  O4  NGA B   3     265.938 250.994 196.587  1.00 25.94    -0.218 OA
HETATM   46  O5  NGA B   3     266.481 249.174 194.466  1.00 19.30    -0.327 OA
BRANCH  41  47
HETATM   47  N2  NGA B   3     262.993 248.180 194.911  1.00 20.03    -0.232 NA
HETATM   48  C7  NGA B   3     262.413 247.315 195.768  1.00 20.86     0.252 C 
HETATM   49  C8  NGA B   3     261.246 246.505 195.168  1.00 25.36     0.100 C 
HETATM   50  O7  NGA B   3     262.855 247.170 196.924  1.00 33.51    -0.271 OA
ENDBRANCH  41  47
BRANCH  42  51
HETATM   51  O3  NGA B   3     263.145 250.914 196.239  1.00 18.48    -0.327 OA
BRANCH  51  52
HETATM   52  C1  GAL B   4     262.110 251.800 195.849  1.00 17.31     0.270 C 
HETATM   53  C2  GAL B   4     260.775 251.453 196.491  1.00 14.28     0.241 C 
HETATM   54  C3  GAL B   4     259.690 252.444 196.096  1.00 14.14     0.220 C 
HETATM   55  O2  GAL B   4     260.368 250.154 196.069  1.00 16.82    -0.215 OA
HETATM   56  C4  GAL B   4     260.156 253.862 196.385  1.00 13.05     0.215 C 
HETATM   57  O3  GAL B   4     258.480 252.155 196.768  1.00 14.59    -0.218 OA
HETATM   58  C5  GAL B   4     261.548 254.091 195.808  1.00 15.75     0.184 C 
HETATM   59  O4  GAL B   4     260.122 254.085 197.790  1.00 13.46    -0.218 OA
HETATM   60  O5  GAL B   4     262.507 253.122 196.259  1.00 16.29    -0.326 OA
BRANCH  58  61
HETATM   61  C6  GAL B   4     262.076 255.494 196.122  1.00 16.07     0.215 C 
HETATM   62  O6  GAL B   4     261.837 256.446 195.098  1.00 17.63    -0.218 OA
ENDBRANCH  58  61
ENDBRANCH  51  52
ENDBRANCH  42  51
BRANCH  44  63
HETATM   63  C6  NGA B   3     267.707 251.244 194.340  1.00 23.22     0.215 C 
HETATM   64  O6  NGA B   3     268.623 250.297 194.865  1.00 34.06    -0.218 OA
ENDBRANCH  44  63
ENDBRANCH  39  40
ENDBRANCH  15  39
BRANCH  16  65
HETATM   65  C6  GAL B   2     266.758 247.207 197.046  1.00 20.92     0.214 C 
HETATM   66  O6  GAL B   2     265.992 246.534 198.048  1.00 21.47    -0.218 OA
ENDBRANCH  16  65
ENDBRANCH  10  11
ENDBRANCH   3  10
BRANCH   4  67
HETATM   67  C6  BGC B   1     267.847 241.676 197.211  1.00 24.07     0.214 C 
HETATM   68  O6  BGC B   1     268.536 240.975 196.141  1.00 26.88    -0.218 OA
ENDBRANCH   4  67
TORSDOF 18
ENDMDL
MODEL 5
REMARK VINA RESULT:      -6.3     14.279     17.994
REMARK  18 active torsions:
REMARK  status: ('A' for Active; 'I' for Inactive)
REMARK    1  A    between atoms: C4_4162  and  O4_4169 
REMARK    2  A    between atoms: C5_4163  and  C6_4164 
REMARK    3  A    between atoms: O4_4169  and  C1_4172 
REMARK    4  A    between atoms: C3_4174  and  O3_4179 
REMARK    5  A    between atoms: C4_4175  and  O4_4180 
REMARK    6  A    between atoms: C5_4176  and  C6_4177 
REMARK    7  A    between atoms: O3_4179  and  C2_4209 
REMARK    8  A    between atoms: O4_4180  and  C1_4183 
REMARK    9  A    between atoms: C2_4184  and  N2_4191 
REMARK   10  A    between atoms: C3_4185  and  O3_4192 
REMARK   11  A    between atoms: C5_4187  and  C6_4188 
REMARK       I    between atoms: C7_4189  and  N2_4191 
REMARK   12  A    between atoms: O3_4192  and  C1_4197 
REMARK   13  A    between atoms: C5_4201  and  C6_4202 
REMARK   14  A    between atoms: C1_4208  and  C2_4209 
REMARK   15  A    between atoms: C5_4212  and  N5_4219 
REMARK   16  A    between atoms: C6_4213  and  C7_4214 
REMARK   17  A    between atoms: C7_4214  and  C8_4215 
REMARK   18  A    between atoms: C8_4215  and  C9_4216 
REMARK       I    between atoms: C10_4217  and  N5_4219 
ROOT
HETATM    1  C2  BGC B   1     270.700 242.301 196.491  1.00 23.00     0.244 C 
HETATM    2  C3  BGC B   1     269.911 243.575 196.752  1.00 22.71     0.217 C 
HETATM    3  C4  BGC B   1     268.463 243.367 196.274  1.00 19.49     0.181 C 
HETATM    4  C5  BGC B   1     267.881 242.151 197.015  1.00 21.23     0.181 C 
HETATM    5  C1  BGC B   1     270.021 241.125 197.208  1.00 23.10     0.303 C 
HETATM    6  O1  BGC B   1     270.692 239.920 196.844  1.00 30.29    -0.187 OA
HETATM    7  O2  BGC B   1     272.062 242.375 196.881  1.00 24.46    -0.215 OA
HETATM    8  O3  BGC B   1     270.525 244.673 196.105  1.00 20.09    -0.218 OA
HETATM    9  O5  BGC B   1     268.698 241.029 196.662  1.00 23.03    -0.324 OA
ENDROOT
BRANCH   3  10
HETATM   10  O4  BGC B   1     267.702 244.533 196.618  1.00 18.81    -0.326 OA
BRANCH  10  11
HETATM   11  C1  GAL B   2     267.117 245.260 195.546  1.00 18.29     0.270 C 
HETATM   12  C2  GAL B   2     267.473 246.704 195.686  1.00 21.36     0.238 C 
HETATM   13  C3  GAL B   2     267.092 247.519 194.453  1.00 18.89     0.183 C 
HETATM   14  O2  GAL B   2     266.877 247.241 196.852  1.00 21.67    -0.215 OA
HETATM   15  C4  GAL B   2     267.543 246.834 193.161  1.00 18.64     0.177 C 
HETATM   16  C5  GAL B   2     267.039 245.399 193.154  1.00 18.34     0.180 C 
HETATM   17  O5  GAL B   2     267.589 244.727 194.313  1.00 18.97    -0.326 OA
BRANCH  13  18
HETATM   18  O3  GAL B   2     267.738 248.769 194.649  1.00 18.86    -0.324 OA
BRANCH  18  19
HETATM   19  C2  SIA B   5     266.947 249.941 194.530  1.00 20.42     0.271 C 
HETATM   20  C3  SIA B   5     265.478 249.680 194.332  1.00 21.15     0.103 C 
HETATM   21  C4  SIA B   5     264.704 250.999 194.182  1.00 19.84     0.182 C 
HETATM   22  C5  SIA B   5     265.356 251.896 193.114  1.00 19.94     0.166 C 
HETATM   23  O4  SIA B   5     263.392 250.667 193.694  1.00 25.26    -0.221 OA
HETATM   24  C6  SIA B   5     266.840 252.048 193.395  1.00 20.62     0.176 C 
HETATM   25  O6  SIA B   5     267.487 250.742 193.475  1.00 20.84    -0.325 OA
BRANCH  19  26
HETATM   26  C1  SIA B   5     267.183 250.666 195.845  1.00 20.04     0.240 C 
HETATM   27  O1A SIA B   5     268.333 251.121 196.020  1.00 18.86    -0.644 OA
HETATM   28  O1B SIA B   5     266.248 250.720 196.676  1.00 20.53    -0.644 OA
ENDBRANCH  19  26
BRANCH  22  29
HETATM   29  N5  SIA B   5     264.633 253.145 192.994  1.00 20.57    -0.235 NA
HETATM   30  C10 SIA B   5     263.998 253.610 191.899  1.00 24.13     0.252 C 
HETATM   31  C11 SIA B   5     263.297 254.969 192.142  1.00 22.96     0.100 C 
HETATM   32  O10 SIA B   5     263.966 252.973 190.805  1.00 26.68    -0.271 OA
ENDBRANCH  22  29
BRANCH  24  33
HETATM   33  C7  SIA B   5     267.623 252.816 192.338  1.00 19.74     0.214 C 
HETATM   34  O7  SIA B   5     267.275 252.431 191.003  1.00 22.57    -0.218 OA
BRANCH  33  35
HETATM   35  C8  SIA B   5     269.120 252.467 192.566  1.00 19.54     0.218 C 
HETATM   36  O8  SIA B   5     269.785 253.632 193.001  1.00 19.73    -0.218 OA
BRANCH  35  37
HETATM   37  C9  SIA B   5     269.695 252.087 191.213  1.00 20.72     0.218 C 
HETATM   38  O9  SIA B   5     270.926 251.416 191.290  1.00 21.01    -0.218 OA
ENDBRANCH  35  37
ENDBRANCH  33  35
ENDBRANCH  24  33
ENDBRANCH  18  19
ENDBRANCH  13  18
BRANCH  15  39
HETATM   39  O4  GAL B   2     268.979 246.832 193.172  1.00 21.34    -0.327 OA
BRANCH  39  40
HETATM   40  C1  NGA B   3     269.509 247.593 192.075  1.00 19.80     0.262 C 
HETATM   41  C2  NGA B   3     270.410 246.688 191.213  1.00 20.60     0.192 C 
HETATM   42  C3  NGA B   3     270.870 247.447 189.969  1.00 18.92     0.178 C 
HETATM   43  C4  NGA B   3     269.662 248.010 189.223  1.00 18.56     0.211 C 
HETATM   44  C5  NGA B   3     268.809 248.822 190.204  1.00 20.83     0.184 C 
HETATM   45  O4  NGA B   3     268.860 246.987 188.651  1.00 25.94    -0.218 OA
HETATM   46  O5  NGA B   3     268.364 247.965 191.278  1.00 19.30    -0.327 OA
BRANCH  41  47
HETATM   47  N2  NGA B   3     271.496 246.276 192.106  1.00 20.03    -0.232 NA
HETATM   48  C7  NGA B   3     272.094 245.067 192.055  1.00 20.86     0.252 C 
HETATM   49  C8  NGA B   3     273.101 244.802 193.191  1.00 25.36     0.100 C 
HETATM   50  O7  NGA B   3     271.782 244.239 191.177  1.00 33.51    -0.271 OA
ENDBRANCH  41  47
BRANCH  42  51
HETATM   51  O3  NGA B   3     271.613 246.580 189.081  1.00 18.48    -0.327 OA
BRANCH  51  52
HETATM   52  C1  GAL B   4     272.713 247.185 188.423  1.00 17.31     0.270 C 
HETATM   53  C2  GAL B   4     273.924 246.265 188.352  1.00 14.28     0.241 C 
HETATM   54  C3  GAL B   4     275.077 246.915 187.601  1.00 14.14     0.220 C 
HETATM   55  O2  GAL B   4     274.366 245.958 189.671  1.00 16.82    -0.215 OA
HETATM   56  C4  GAL B   4     274.598 247.402 186.242  1.00 13.05     0.215 C 
HETATM   57  O3  GAL B   4     276.160 246.016 187.472  1.00 14.59    -0.218 OA
HETATM   58  C5  GAL B   4     273.320 248.217 186.391  1.00 15.75     0.184 C 
HETATM   59  O4  GAL B   4     274.415 246.281 185.385  1.00 13.46    -0.218 OA
HETATM   60  O5  GAL B   4     272.282 247.510 187.088  1.00 16.29    -0.326 OA
BRANCH  58  61
HETATM   61  C6  GAL B   4     272.776 248.684 185.036  1.00 16.07     0.215 C 
HETATM   62  O6  GAL B   4     272.766 250.093 184.871  1.00 17.63    -0.218 OA
ENDBRANCH  58  61
ENDBRANCH  51  52
ENDBRANCH  42  51
BRANCH  44  63
HETATM   63  C6  NGA B   3     267.563 249.398 189.515  1.00 23.22     0.215 C 
HETATM   64  O6  NGA B   3     267.975 250.198 188.418  1.00 34.06    -0.218 OA
ENDBRANCH  44  63
ENDBRANCH  39  40
ENDBRANCH  15  39
BRANCH  16  65
HETATM   65  C6  GAL B   2     267.377 244.586 191.943  1.00 20.92     0.214 C 
HETATM   66  O6  GAL B   2     266.839 245.161 190.751  1.00 21.47    -0.218 OA
ENDBRANCH  16  65
ENDBRANCH  10  11
ENDBRANCH   3  10
BRANCH   4  67
HETATM   67  C6  BGC B   1     266.473 241.826 196.498  1.00 24.07     0.214 C 
HETATM   68  O6  BGC B   1     266.514 241.696 195.051  1.00 26.88    -0.218 OA
ENDBRANCH   4  67
TORSDOF 18
ENDMDL
MODEL 6
REMARK VINA RESULT:      -6.2     27.635     31.424
REMARK  18 active torsions:
REMARK  status: ('A' for Active; 'I' for Inactive)
REMARK    1  A    between atoms: C4_4162  and  O4_4169 
REMARK    2  A    between atoms: C5_4163  and  C6_4164 
REMARK    3  A    between atoms: O4_4169  and  C1_4172 
REMARK    4  A    between atoms: C3_4174  and  O3_4179 
REMARK    5  A    between atoms: C4_4175  and  O4_4180 
REMARK    6  A    between atoms: C5_4176  and  C6_4177 
REMARK    7  A    between atoms: O3_4179  and  C2_4209 
REMARK    8  A    between atoms: O4_4180  and  C1_4183 
REMARK    9  A    between atoms: C2_4184  and  N2_4191 
REMARK   10  A    between atoms: C3_4185  and  O3_4192 
REMARK   11  A    between atoms: C5_4187  and  C6_4188 
REMARK       I    between atoms: C7_4189  and  N2_4191 
REMARK   12  A    between atoms: O3_4192  and  C1_4197 
REMARK   13  A    between atoms: C5_4201  and  C6_4202 
REMARK   14  A    between atoms: C1_4208  and  C2_4209 
REMARK   15  A    between atoms: C5_4212  and  N5_4219 
REMARK   16  A    between atoms: C6_4213  and  C7_4214 
REMARK   17  A    between atoms: C7_4214  and  C8_4215 
REMARK   18  A    between atoms: C8_4215  and  C9_4216 
REMARK       I    between atoms: C10_4217  and  N5_4219 
ROOT
HETATM    1  C2  BGC B   1     256.064 268.918 206.069  1.00 23.00     0.244 C 
HETATM    2  C3  BGC B   1     256.523 269.056 207.513  1.00 22.71     0.217 C 
HETATM    3  C4  BGC B   1     255.333 269.535 208.365  1.00 19.49     0.181 C 
HETATM    4  C5  BGC B   1     254.186 268.523 208.204  1.00 21.23     0.181 C 
HETATM    5  C1  BGC B   1     254.878 267.945 206.000  1.00 23.10     0.303 C 
HETATM    6  O1  BGC B   1     254.377 267.931 204.665  1.00 30.29    -0.187 OA
HETATM    7  O2  BGC B   1     257.083 268.492 205.178  1.00 24.46    -0.215 OA
HETATM    8  O3  BGC B   1     257.620 269.945 207.597  1.00 20.09    -0.218 OA
HETATM    9  O5  BGC B   1     253.843 268.513 206.814  1.00 23.03    -0.324 OA
ENDROOT
BRANCH   3  10
HETATM   10  O4  BGC B   1     255.744 269.562 209.739  1.00 18.81    -0.326 OA
BRANCH  10  11
HETATM   11  C1  GAL B   2     255.814 270.836 210.365  1.00 18.29     0.270 C 
HETATM   12  C2  GAL B   2     257.247 271.234 210.501  1.00 21.36     0.238 C 
HETATM   13  C3  GAL B   2     257.409 272.686 210.941  1.00 18.89     0.183 C 
HETATM   14  O2  GAL B   2     257.912 270.358 211.392  1.00 21.67    -0.215 OA
HETATM   15  C4  GAL B   2     256.521 273.627 210.122  1.00 18.64     0.177 C 
HETATM   16  C5  GAL B   2     255.090 273.111 210.147  1.00 18.34     0.180 C 
HETATM   17  O5  GAL B   2     255.087 271.778 209.583  1.00 18.97    -0.326 OA
BRANCH  13  18
HETATM   18  O3  GAL B   2     258.791 272.956 210.752  1.00 18.86    -0.324 OA
BRANCH  18  19
HETATM   19  C2  SIA B   5     259.457 273.702 211.759  1.00 20.42     0.271 C 
HETATM   20  C3  SIA B   5     258.563 274.171 212.876  1.00 21.15     0.103 C 
HETATM   21  C4  SIA B   5     259.357 274.994 213.901  1.00 19.84     0.182 C 
HETATM   22  C5  SIA B   5     260.165 276.104 213.203  1.00 19.94     0.166 C 
HETATM   23  O4  SIA B   5     258.399 275.655 214.748  1.00 25.26    -0.221 OA
HETATM   24  C6  SIA B   5     260.988 275.518 212.070  1.00 20.62     0.176 C 
HETATM   25  O6  SIA B   5     260.135 274.795 211.133  1.00 20.84    -0.325 OA
BRANCH  19  26
HETATM   26  C1  SIA B   5     260.502 272.734 212.287  1.00 20.04     0.240 C 
HETATM   27  O1A SIA B   5     261.446 272.471 211.513  1.00 18.86    -0.644 OA
HETATM   28  O1B SIA B   5     260.334 272.232 213.423  1.00 20.53    -0.644 OA
ENDBRANCH  19  26
BRANCH  22  29
HETATM   29  N5  SIA B   5     260.926 276.862 214.175  1.00 20.57    -0.235 NA
HETATM   30  C10 SIA B   5     260.748 278.157 214.510  1.00 24.13     0.252 C 
HETATM   31  C11 SIA B   5     261.723 278.630 215.615  1.00 22.96     0.100 C 
HETATM   32  O10 SIA B   5     259.853 278.882 213.985  1.00 26.68    -0.271 OA
ENDBRANCH  22  29
BRANCH  24  33
HETATM   33  C7  SIA B   5     261.739 276.535 211.223  1.00 19.74     0.214 C 
HETATM   34  O7  SIA B   5     261.278 276.576 209.867  1.00 22.57    -0.218 OA
BRANCH  33  35
HETATM   35  C8  SIA B   5     263.226 276.080 211.213  1.00 19.54     0.218 C 
HETATM   36  O8  SIA B   5     263.429 275.257 210.086  1.00 19.73    -0.218 OA
BRANCH  35  37
HETATM   37  C9  SIA B   5     263.433 275.225 212.451  1.00 20.72     0.218 C 
HETATM   38  O9  SIA B   5     264.218 274.083 212.223  1.00 21.01    -0.218 OA
ENDBRANCH  35  37
ENDBRANCH  33  35
ENDBRANCH  24  33
ENDBRANCH  18  19
ENDBRANCH  13  18
BRANCH  15  39
HETATM   39  O4  GAL B   2     257.014 273.594 208.775  1.00 21.34    -0.327 OA
BRANCH  39  40
HETATM   40  C1  NGA B   3     257.547 274.869 208.384  1.00 19.80     0.262 C 
HETATM   41  C2  NGA B   3     256.701 275.446 207.232  1.00 20.60     0.192 C 
HETATM   42  C3  NGA B   3     257.173 276.860 206.898  1.00 18.92     0.178 C 
HETATM   43  C4  NGA B   3     257.173 277.722 208.159  1.00 18.56     0.211 C 
HETATM   44  C5  NGA B   3     257.979 277.006 209.249  1.00 20.83     0.184 C 
HETATM   45  O4  NGA B   3     255.860 277.968 208.642  1.00 25.94    -0.218 OA
HETATM   46  O5  NGA B   3     257.372 275.726 209.532  1.00 19.30    -0.327 OA
BRANCH  41  47
HETATM   47  N2  NGA B   3     256.850 274.484 206.136  1.00 20.03    -0.232 NA
HETATM   48  C7  NGA B   3     255.827 274.057 205.366  1.00 20.86     0.252 C 
HETATM   49  C8  NGA B   3     256.195 272.931 204.380  1.00 25.36     0.100 C 
HETATM   50  O7  NGA B   3     254.680 274.521 205.516  1.00 33.51    -0.271 OA
ENDBRANCH  41  47
BRANCH  42  51
HETATM   51  O3  NGA B   3     256.314 277.470 205.908  1.00 18.48    -0.327 OA
BRANCH  51  52
HETATM   52  C1  GAL B   4     256.981 278.038 204.793  1.00 17.31     0.270 C 
HETATM   53  C2  GAL B   4     256.044 278.286 203.620  1.00 14.28     0.241 C 
HETATM   54  C3  GAL B   4     256.770 278.939 202.453  1.00 14.14     0.220 C 
HETATM   55  O2  GAL B   4     255.503 277.046 203.173  1.00 16.82    -0.215 OA
HETATM   56  C4  GAL B   4     257.496 280.187 202.930  1.00 13.05     0.215 C 
HETATM   57  O3  GAL B   4     255.867 279.239 201.407  1.00 14.59    -0.218 OA
HETATM   58  C5  GAL B   4     258.320 279.879 204.174  1.00 15.75     0.184 C 
HETATM   59  O4  GAL B   4     256.544 281.217 203.167  1.00 13.46    -0.218 OA
HETATM   60  O5  GAL B   4     257.542 279.291 205.229  1.00 16.29    -0.326 OA
BRANCH  58  61
HETATM   61  C6  GAL B   4     259.028 281.125 204.716  1.00 16.07     0.215 C 
HETATM   62  O6  GAL B   4     258.962 281.259 206.127  1.00 17.63    -0.218 OA
ENDBRANCH  58  61
ENDBRANCH  51  52
ENDBRANCH  42  51
BRANCH  44  63
HETATM   63  C6  NGA B   3     257.997 277.817 210.553  1.00 23.22     0.215 C 
HETATM   64  O6  NGA B   3     257.268 277.109 211.542  1.00 34.06    -0.218 OA
ENDBRANCH  44  63
ENDBRANCH  39  40
ENDBRANCH  15  39
BRANCH  16  65
HETATM   65  C6  GAL B   2     254.080 273.931 209.406  1.00 20.92     0.214 C 
HETATM   66  O6  GAL B   2     254.185 275.319 209.726  1.00 21.47    -0.218 OA
ENDBRANCH  16  65
ENDBRANCH  10  11
ENDBRANCH   3  10
BRANCH   4  67
HETATM   67  C6  BGC B   1     252.931 269.006 208.945  1.00 24.07     0.214 C 
HETATM   68  O6  BGC B   1     252.701 268.153 210.098  1.00 26.88    -0.218 OA
ENDBRANCH   4  67
TORSDOF 18
ENDMDL
MODEL 7
REMARK VINA RESULT:      -6.2     27.721     31.424
REMARK  18 active torsions:
REMARK  status: ('A' for Active; 'I' for Inactive)
REMARK    1  A    between atoms: C4_4162  and  O4_4169 
REMARK    2  A    between atoms: C5_4163  and  C6_4164 
REMARK    3  A    between atoms: O4_4169  and  C1_4172 
REMARK    4  A    between atoms: C3_4174  and  O3_4179 
REMARK    5  A    between atoms: C4_4175  and  O4_4180 
REMARK    6  A    between atoms: C5_4176  and  C6_4177 
REMARK    7  A    between atoms: O3_4179  and  C2_4209 
REMARK    8  A    between atoms: O4_4180  and  C1_4183 
REMARK    9  A    between atoms: C2_4184  and  N2_4191 
REMARK   10  A    between atoms: C3_4185  and  O3_4192 
REMARK   11  A    between atoms: C5_4187  and  C6_4188 
REMARK       I    between atoms: C7_4189  and  N2_4191 
REMARK   12  A    between atoms: O3_4192  and  C1_4197 
REMARK   13  A    between atoms: C5_4201  and  C6_4202 
REMARK   14  A    between atoms: C1_4208  and  C2_4209 
REMARK   15  A    between atoms: C5_4212  and  N5_4219 
REMARK   16  A    between atoms: C6_4213  and  C7_4214 
REMARK   17  A    between atoms: C7_4214  and  C8_4215 
REMARK   18  A    between atoms: C8_4215  and  C9_4216 
REMARK       I    between atoms: C10_4217  and  N5_4219 
ROOT
HETATM    1  C2  BGC B   1     254.277 268.607 209.133  1.00 23.00     0.244 C 
HETATM    2  C3  BGC B   1     255.235 268.933 210.268  1.00 22.71     0.217 C 
HETATM    3  C4  BGC B   1     254.521 269.862 211.266  1.00 19.49     0.181 C 
HETATM    4  C5  BGC B   1     253.245 269.155 211.755  1.00 21.23     0.181 C 
HETATM    5  C1  BGC B   1     253.004 267.967 209.706  1.00 23.10     0.303 C 
HETATM    6  O1  BGC B   1     252.065 267.793 208.647  1.00 30.29    -0.187 OA
HETATM    7  O2  BGC B   1     254.829 267.762 208.135  1.00 24.46    -0.215 OA
HETATM    8  O3  BGC B   1     256.418 269.519 209.759  1.00 20.09    -0.218 OA
HETATM    9  O5  BGC B   1     252.433 268.934 210.597  1.00 23.03    -0.324 OA
ENDROOT
BRANCH   3  10
HETATM   10  O4  BGC B   1     255.393 270.080 212.384  1.00 18.81    -0.326 OA
BRANCH  10  11
HETATM   11  C1  GAL B   2     255.875 271.403 212.576  1.00 18.29     0.270 C 
HETATM   12  C2  GAL B   2     257.361 271.408 212.421  1.00 21.36     0.238 C 
HETATM   13  C3  GAL B   2     257.937 272.819 212.372  1.00 18.89     0.183 C 
HETATM   14  O2  GAL B   2     257.960 270.651 213.457  1.00 21.67    -0.215 OA
HETATM   15  C4  GAL B   2     257.154 273.716 211.410  1.00 18.64     0.177 C 
HETATM   16  C5  GAL B   2     255.674 273.645 211.753  1.00 18.34     0.180 C 
HETATM   17  O5  GAL B   2     255.253 272.266 211.631  1.00 18.97    -0.326 OA
BRANCH  13  18
HETATM   18  O3  GAL B   2     259.282 272.634 211.955  1.00 18.86    -0.324 OA
BRANCH  18  19
HETATM   19  C2  SIA B   5     260.308 273.013 212.859  1.00 20.42     0.271 C 
HETATM   20  C3  SIA B   5     261.148 271.868 213.358  1.00 21.15     0.103 C 
HETATM   21  C4  SIA B   5     262.209 272.363 214.352  1.00 19.84     0.182 C 
HETATM   22  C5  SIA B   5     261.566 273.228 215.452  1.00 19.94     0.166 C 
HETATM   23  O4  SIA B   5     262.750 271.202 215.008  1.00 25.26    -0.221 OA
HETATM   24  C6  SIA B   5     260.711 274.315 214.828  1.00 20.62     0.176 C 
HETATM   25  O6  SIA B   5     259.710 273.738 213.937  1.00 20.84    -0.325 OA
BRANCH  19  26
HETATM   26  C1  SIA B   5     261.157 273.979 212.050  1.00 20.04     0.240 C 
HETATM   27  O1A SIA B   5     260.795 275.174 212.068  1.00 18.86    -0.644 OA
HETATM   28  O1B SIA B   5     262.119 273.523 211.389  1.00 20.53    -0.644 OA
ENDBRANCH  19  26
BRANCH  22  29
HETATM   29  N5  SIA B   5     262.577 273.707 216.373  1.00 20.57    -0.235 NA
HETATM   30  C10 SIA B   5     262.721 273.359 217.668  1.00 24.13     0.252 C 
HETATM   31  C11 SIA B   5     263.936 274.042 218.341  1.00 22.96     0.100 C 
HETATM   32  O10 SIA B   5     261.950 272.536 218.245  1.00 26.68    -0.271 OA
ENDBRANCH  22  29
BRANCH  24  33
HETATM   33  C7  SIA B   5     259.923 275.165 215.815  1.00 19.74     0.214 C 
HETATM   34  O7  SIA B   5     258.513 275.141 215.564  1.00 22.57    -0.218 OA
BRANCH  33  35
HETATM   35  C8  SIA B   5     260.421 276.626 215.627  1.00 19.54     0.218 C 
HETATM   36  O8  SIA B   5     260.215 277.323 216.836  1.00 19.73    -0.218 OA
BRANCH  35  37
HETATM   37  C9  SIA B   5     259.532 277.262 214.573  1.00 20.72     0.218 C 
HETATM   38  O9  SIA B   5     260.174 278.258 213.818  1.00 21.01    -0.218 OA
ENDBRANCH  35  37
ENDBRANCH  33  35
ENDBRANCH  24  33
ENDBRANCH  18  19
ENDBRANCH  13  18
BRANCH  15  39
HETATM   39  O4  GAL B   2     257.361 273.189 210.091  1.00 21.34    -0.327 OA
BRANCH  39  40
HETATM   40  C1  NGA B   3     257.965 274.166 209.229  1.00 19.80     0.262 C 
HETATM   41  C2  NGA B   3     257.018 274.463 208.050  1.00 20.60     0.192 C 
HETATM   42  C3  NGA B   3     257.587 275.598 207.200  1.00 18.92     0.178 C 
HETATM   43  C4  NGA B   3     257.882 276.812 208.078  1.00 18.56     0.211 C 
HETATM   44  C5  NGA B   3     258.765 276.371 209.252  1.00 20.83     0.184 C 
HETATM   45  O4  NGA B   3     256.698 277.406 208.589  1.00 25.94    -0.218 OA
HETATM   46  O5  NGA B   3     258.071 275.366 210.024  1.00 19.30    -0.327 OA
BRANCH  41  47
HETATM   47  N2  NGA B   3     256.883 273.187 207.343  1.00 20.03    -0.232 NA
HETATM   48  C7  NGA B   3     255.730 272.491 207.261  1.00 20.86     0.252 C 
HETATM   49  C8  NGA B   3     255.865 271.104 206.601  1.00 25.36     0.100 C 
HETATM   50  O7  NGA B   3     254.676 272.944 207.747  1.00 33.51    -0.271 OA
ENDBRANCH  41  47
BRANCH  42  51
HETATM   51  O3  NGA B   3     256.656 275.981 206.161  1.00 18.48    -0.327 OA
BRANCH  51  52
HETATM   52  C1  GAL B   4     256.947 275.477 204.869  1.00 17.31     0.270 C 
HETATM   53  C2  GAL B   4     258.330 274.846 204.791  1.00 14.28     0.241 C 
HETATM   54  C3  GAL B   4     258.604 274.268 203.409  1.00 14.14     0.220 C 
HETATM   55  O2  GAL B   4     259.320 275.833 205.066  1.00 16.82    -0.215 OA
HETATM   56  C4  GAL B   4     257.478 273.326 203.011  1.00 13.05     0.215 C 
HETATM   57  O3  GAL B   4     259.856 273.613 203.380  1.00 14.59    -0.218 OA
HETATM   58  C5  GAL B   4     256.126 273.993 203.229  1.00 15.75     0.184 C 
HETATM   59  O4  GAL B   4     257.598 272.119 203.754  1.00 13.46    -0.218 OA
HETATM   60  O5  GAL B   4     255.951 274.482 204.568  1.00 16.29    -0.326 OA
BRANCH  58  61
HETATM   61  C6  GAL B   4     254.962 273.057 202.887  1.00 16.07     0.215 C 
HETATM   62  O6  GAL B   4     254.094 272.792 203.977  1.00 17.63    -0.218 OA
ENDBRANCH  58  61
ENDBRANCH  51  52
ENDBRANCH  42  51
BRANCH  44  63
HETATM   63  C6  NGA B   3     259.079 277.548 210.186  1.00 23.22     0.215 C 
HETATM   64  O6  NGA B   3     260.014 278.403 209.548  1.00 34.06    -0.218 OA
ENDBRANCH  44  63
ENDBRANCH  39  40
ENDBRANCH  15  39
BRANCH  16  65
HETATM   65  C6  GAL B   2     254.761 274.485 210.915  1.00 20.92     0.214 C 
HETATM   66  O6  GAL B   2     255.008 275.881 211.097  1.00 21.47    -0.218 OA
ENDBRANCH  16  65
ENDBRANCH  10  11
ENDBRANCH   3  10
BRANCH   4  67
HETATM   67  C6  BGC B   1     252.432 270.081 212.670  1.00 24.07     0.214 C 
HETATM   68  O6  BGC B   1     252.510 269.590 214.036  1.00 26.88    -0.218 OA
ENDBRANCH   4  67
TORSDOF 18
ENDMDL
MODEL 8
REMARK VINA RESULT:      -6.2     26.966     30.821
REMARK  18 active torsions:
REMARK  status: ('A' for Active; 'I' for Inactive)
REMARK    1  A    between atoms: C4_4162  and  O4_4169 
REMARK    2  A    between atoms: C5_4163  and  C6_4164 
REMARK    3  A    between atoms: O4_4169  and  C1_4172 
REMARK    4  A    between atoms: C3_4174  and  O3_4179 
REMARK    5  A    between atoms: C4_4175  and  O4_4180 
REMARK    6  A    between atoms: C5_4176  and  C6_4177 
REMARK    7  A    between atoms: O3_4179  and  C2_4209 
REMARK    8  A    between atoms: O4_4180  and  C1_4183 
REMARK    9  A    between atoms: C2_4184  and  N2_4191 
REMARK   10  A    between atoms: C3_4185  and  O3_4192 
REMARK   11  A    between atoms: C5_4187  and  C6_4188 
REMARK       I    between atoms: C7_4189  and  N2_4191 
REMARK   12  A    between atoms: O3_4192  and  C1_4197 
REMARK   13  A    between atoms: C5_4201  and  C6_4202 
REMARK   14  A    between atoms: C1_4208  and  C2_4209 
REMARK   15  A    between atoms: C5_4212  and  N5_4219 
REMARK   16  A    between atoms: C6_4213  and  C7_4214 
REMARK   17  A    between atoms: C7_4214  and  C8_4215 
REMARK   18  A    between atoms: C8_4215  and  C9_4216 
REMARK       I    between atoms: C10_4217  and  N5_4219 
ROOT
HETATM    1  C2  BGC B   1     252.200 268.728 211.265  1.00 23.00     0.244 C 
HETATM    2  C3  BGC B   1     253.564 269.355 211.019  1.00 22.71     0.217 C 
HETATM    3  C4  BGC B   1     254.433 268.355 210.236  1.00 19.49     0.181 C 
HETATM    4  C5  BGC B   1     253.703 268.001 208.929  1.00 21.23     0.181 C 
HETATM    5  C1  BGC B   1     251.566 268.343 209.921  1.00 23.10     0.303 C 
HETATM    6  O1  BGC B   1     250.353 267.636 210.175  1.00 30.29    -0.187 OA
HETATM    7  O2  BGC B   1     251.308 269.555 211.995  1.00 24.46    -0.215 OA
HETATM    8  O3  BGC B   1     254.164 269.723 212.247  1.00 20.09    -0.218 OA
HETATM    9  O5  BGC B   1     252.458 267.403 209.308  1.00 23.03    -0.324 OA
ENDROOT
BRANCH   3  10
HETATM   10  O4  BGC B   1     255.679 268.992 209.918  1.00 18.81    -0.326 OA
BRANCH  10  11
HETATM   11  C1  GAL B   2     255.667 270.408 209.800  1.00 18.29     0.270 C 
HETATM   12  C2  GAL B   2     257.010 270.940 210.180  1.00 21.36     0.238 C 
HETATM   13  C3  GAL B   2     257.163 272.422 209.854  1.00 18.89     0.183 C 
HETATM   14  O2  GAL B   2     257.259 270.694 211.552  1.00 21.67    -0.215 OA
HETATM   15  C4  GAL B   2     256.687 272.741 208.435  1.00 18.64     0.177 C 
HETATM   16  C5  GAL B   2     255.282 272.189 208.243  1.00 18.34     0.180 C 
HETATM   17  O5  GAL B   2     255.330 270.759 208.463  1.00 18.97    -0.326 OA
BRANCH  13  18
HETATM   18  O3  GAL B   2     258.551 272.676 210.022  1.00 18.86    -0.324 OA
BRANCH  18  19
HETATM   19  C2  SIA B   5     258.933 273.578 211.049  1.00 20.42     0.271 C 
HETATM   20  C3  SIA B   5     257.834 273.912 212.021  1.00 21.15     0.103 C 
HETATM   21  C4  SIA B   5     258.325 274.915 213.076  1.00 19.84     0.182 C 
HETATM   22  C5  SIA B   5     258.993 276.129 212.405  1.00 19.94     0.166 C 
HETATM   23  O4  SIA B   5     257.161 275.413 213.761  1.00 25.26    -0.221 OA
HETATM   24  C6  SIA B   5     260.047 275.666 211.417  1.00 20.62     0.176 C 
HETATM   25  O6  SIA B   5     259.470 274.754 210.436  1.00 20.84    -0.325 OA
BRANCH  19  26
HETATM   26  C1  SIA B   5     260.065 272.852 211.757  1.00 20.04     0.240 C 
HETATM   27  O1A SIA B   5     261.147 272.788 211.137  1.00 18.86    -0.644 OA
HETATM   28  O1B SIA B   5     259.838 272.332 212.874  1.00 20.53    -0.644 OA
ENDBRANCH  19  26
BRANCH  22  29
HETATM   29  N5  SIA B   5     259.471 277.060 213.408  1.00 20.57    -0.235 NA
HETATM   30  C10 SIA B   5     259.159 278.368 213.510  1.00 24.13     0.252 C 
HETATM   31  C11 SIA B   5     259.827 279.050 214.729  1.00 22.96     0.100 C 
HETATM   32  O10 SIA B   5     258.379 278.951 212.701  1.00 26.68    -0.271 OA
ENDBRANCH  22  29
BRANCH  24  33
HETATM   33  C7  SIA B   5     260.697 276.773 210.599  1.00 19.74     0.214 C 
HETATM   34  O7  SIA B   5     260.502 276.607 209.189  1.00 22.57    -0.218 OA
BRANCH  33  35
HETATM   35  C8  SIA B   5     262.223 276.688 210.886  1.00 19.54     0.218 C 
HETATM   36  O8  SIA B   5     262.810 275.849 209.916  1.00 19.73    -0.218 OA
BRANCH  35  37
HETATM   37  C9  SIA B   5     262.379 276.011 212.236  1.00 20.72     0.218 C 
HETATM   38  O9  SIA B   5     263.487 275.149 212.311  1.00 21.01    -0.218 OA
ENDBRANCH  35  37
ENDBRANCH  33  35
ENDBRANCH  24  33
ENDBRANCH  18  19
ENDBRANCH  13  18
BRANCH  15  39
HETATM   39  O4  GAL B   2     257.586 272.073 207.537  1.00 21.34    -0.327 OA
BRANCH  39  40
HETATM   40  C1  NGA B   3     258.228 273.005 206.654  1.00 19.80     0.262 C 
HETATM   41  C2  NGA B   3     257.964 272.592 205.193  1.00 20.60     0.192 C 
HETATM   42  C3  NGA B   3     258.526 273.649 204.243  1.00 18.92     0.178 C 
HETATM   43  C4  NGA B   3     257.973 275.025 204.607  1.00 18.56     0.211 C 
HETATM   44  C5  NGA B   3     258.229 275.283 206.097  1.00 20.83     0.184 C 
HETATM   45  O4  NGA B   3     256.580 275.128 204.354  1.00 25.94    -0.218 OA
HETATM   46  O5  NGA B   3     257.566 274.268 206.882  1.00 19.30    -0.327 OA
BRANCH  41  47
HETATM   47  N2  NGA B   3     258.580 271.268 205.058  1.00 20.03    -0.232 NA
HETATM   48  C7  NGA B   3     257.881 270.114 205.021  1.00 20.86     0.252 C 
HETATM   49  C8  NGA B   3     258.749 268.840 205.031  1.00 25.36     0.100 C 
HETATM   50  O7  NGA B   3     256.636 270.122 205.041  1.00 33.51    -0.271 OA
ENDBRANCH  41  47
BRANCH  42  51
HETATM   51  O3  NGA B   3     258.180 273.347 202.872  1.00 18.48    -0.327 OA
BRANCH  51  52
HETATM   52  C1  GAL B   4     256.800 273.436 202.561  1.00 17.31     0.270 C 
HETATM   53  C2  GAL B   4     256.550 274.107 201.217  1.00 14.28     0.241 C 
HETATM   54  C3  GAL B   4     255.066 274.149 200.881  1.00 14.14     0.220 C 
HETATM   55  O2  GAL B   4     257.039 275.445 201.255  1.00 16.82    -0.215 OA
HETATM   56  C4  GAL B   4     254.472 272.754 200.988  1.00 13.05     0.215 C 
HETATM   57  O3  GAL B   4     254.861 274.698 199.595  1.00 14.59    -0.218 OA
HETATM   58  C5  GAL B   4     254.865 272.110 202.312  1.00 15.75     0.184 C 
HETATM   59  O4  GAL B   4     254.902 271.979 199.875  1.00 13.46    -0.218 OA
HETATM   60  O5  GAL B   4     256.285 272.092 202.526  1.00 16.29    -0.326 OA
BRANCH  58  61
HETATM   61  C6  GAL B   4     254.327 270.681 202.437  1.00 16.07     0.215 C 
HETATM   62  O6  GAL B   4     252.931 270.566 202.218  1.00 17.63    -0.218 OA
ENDBRANCH  58  61
ENDBRANCH  51  52
ENDBRANCH  42  51
BRANCH  44  63
HETATM   63  C6  NGA B   3     257.674 276.648 206.529  1.00 23.22     0.215 C 
HETATM   64  O6  NGA B   3     258.040 277.619 205.562  1.00 34.06    -0.218 OA
ENDBRANCH  44  63
ENDBRANCH  39  40
ENDBRANCH  15  39
BRANCH  16  65
HETATM   65  C6  GAL B   2     254.654 272.433 206.906  1.00 20.92     0.214 C 
HETATM   66  O6  GAL B   2     254.164 273.770 206.786  1.00 21.47    -0.218 OA
ENDBRANCH  16  65
ENDBRANCH  10  11
ENDBRANCH   3  10
BRANCH   4  67
HETATM   67  C6  BGC B   1     254.472 266.920 208.156  1.00 24.07     0.214 C 
HETATM   68  O6  BGC B   1     254.935 267.475 206.895  1.00 26.88    -0.218 OA
ENDBRANCH   4  67
TORSDOF 18
ENDMDL
MODEL 9
REMARK VINA RESULT:      -6.2      3.001     11.032
REMARK  18 active torsions:
REMARK  status: ('A' for Active; 'I' for Inactive)
REMARK    1  A    between atoms: C4_4162  and  O4_4169 
REMARK    2  A    between atoms: C5_4163  and  C6_4164 
REMARK    3  A    between atoms: O4_4169  and  C1_4172 
REMARK    4  A    between atoms: C3_4174  and  O3_4179 
REMARK    5  A    between atoms: C4_4175  and  O4_4180 
REMARK    6  A    between atoms: C5_4176  and  C6_4177 
REMARK    7  A    between atoms: O3_4179  and  C2_4209 
REMARK    8  A    between atoms: O4_4180  and  C1_4183 
REMARK    9  A    between atoms: C2_4184  and  N2_4191 
REMARK   10  A    between atoms: C3_4185  and  O3_4192 
REMARK   11  A    between atoms: C5_4187  and  C6_4188 
REMARK       I    between atoms: C7_4189  and  N2_4191 
REMARK   12  A    between atoms: O3_4192  and  C1_4197 
REMARK   13  A    between atoms: C5_4201  and  C6_4202 
REMARK   14  A    between atoms: C1_4208  and  C2_4209 
REMARK   15  A    between atoms: C5_4212  and  N5_4219 
REMARK   16  A    between atoms: C6_4213  and  C7_4214 
REMARK   17  A    between atoms: C7_4214  and  C8_4215 
REMARK   18  A    between atoms: C8_4215  and  C9_4216 
REMARK       I    between atoms: C10_4217  and  N5_4219 
ROOT
HETATM    1  C2  BGC B   1     284.108 261.469 207.450  1.00 23.00     0.244 C 
HETATM    2  C3  BGC B   1     283.677 260.069 207.042  1.00 22.71     0.217 C 
HETATM    3  C4  BGC B   1     284.918 259.288 206.574  1.00 19.49     0.181 C 
HETATM    4  C5  BGC B   1     285.944 259.279 207.720  1.00 21.23     0.181 C 
HETATM    5  C1  BGC B   1     285.178 261.376 208.548  1.00 23.10     0.303 C 
HETATM    6  O1  BGC B   1     285.666 262.687 208.822  1.00 30.29    -0.187 OA
HETATM    7  O2  BGC B   1     283.042 262.296 207.891  1.00 24.46    -0.215 OA
HETATM    8  O3  BGC B   1     282.686 260.134 206.034  1.00 20.09    -0.218 OA
HETATM    9  O5  BGC B   1     286.275 260.648 207.980  1.00 23.03    -0.324 OA
ENDROOT
BRANCH   3  10
HETATM   10  O4  BGC B   1     284.522 257.939 206.290  1.00 18.81    -0.326 OA
BRANCH  10  11
HETATM   11  C1  GAL B   2     284.450 257.562 204.921  1.00 18.29     0.270 C 
HETATM   12  C2  GAL B   2     283.037 257.207 204.587  1.00 21.36     0.238 C 
HETATM   13  C3  GAL B   2     282.823 257.024 203.088  1.00 18.89     0.183 C 
HETATM   14  O2  GAL B   2     282.646 256.049 205.301  1.00 21.67    -0.215 OA
HETATM   15  C4  GAL B   2     283.439 258.171 202.285  1.00 18.64     0.177 C 
HETATM   16  C5  GAL B   2     284.891 258.350 202.701  1.00 18.34     0.180 C 
HETATM   17  O5  GAL B   2     284.916 258.641 204.119  1.00 18.97    -0.326 OA
BRANCH  13  18
HETATM   18  O3  GAL B   2     281.410 256.967 202.942  1.00 18.86    -0.324 OA
BRANCH  18  19
HETATM   19  C2  SIA B   5     280.893 256.238 201.841  1.00 20.42     0.271 C 
HETATM   20  C3  SIA B   5     281.945 255.609 200.966  1.00 21.15     0.103 C 
HETATM   21  C4  SIA B   5     281.301 254.868 199.784  1.00 19.84     0.182 C 
HETATM   22  C5  SIA B   5     280.300 255.780 199.049  1.00 19.94     0.166 C 
HETATM   23  O4  SIA B   5     282.351 254.572 198.846  1.00 25.26    -0.221 OA
HETATM   24  C6  SIA B   5     279.323 256.388 200.038  1.00 20.62     0.176 C 
HETATM   25  O6  SIA B   5     280.035 257.103 201.093  1.00 20.84    -0.325 OA
BRANCH  19  26
HETATM   26  C1  SIA B   5     280.037 255.166 202.493  1.00 20.04     0.240 C 
HETATM   27  O1A SIA B   5     278.805 255.371 202.488  1.00 18.86    -0.644 OA
HETATM   28  O1B SIA B   5     280.606 254.186 203.027  1.00 20.53    -0.644 OA
ENDBRANCH  19  26
BRANCH  22  29
HETATM   29  N5  SIA B   5     279.683 255.067 197.949  1.00 20.57    -0.235 NA
HETATM   30  C10 SIA B   5     279.877 255.287 196.633  1.00 24.13     0.252 C 
HETATM   31  C11 SIA B   5     279.077 254.310 195.737  1.00 22.96     0.100 C 
HETATM   32  O10 SIA B   5     280.657 256.183 196.197  1.00 26.68    -0.271 OA
ENDBRANCH  22  29
BRANCH  24  33
HETATM   33  C7  SIA B   5     278.356 257.406 199.449  1.00 19.74     0.214 C 
HETATM   34  O7  SIA B   5     278.880 258.060 198.287  1.00 22.57    -0.218 OA
BRANCH  33  35
HETATM   35  C8  SIA B   5     278.134 258.483 200.548  1.00 19.54     0.218 C 
HETATM   36  O8  SIA B   5     276.882 258.245 201.154  1.00 19.73    -0.218 OA
BRANCH  35  37
HETATM   37  C9  SIA B   5     278.056 259.824 199.841  1.00 20.72     0.218 C 
HETATM   38  O9  SIA B   5     278.131 260.926 200.709  1.00 21.01    -0.218 OA
ENDBRANCH  35  37
ENDBRANCH  33  35
ENDBRANCH  24  33
ENDBRANCH  18  19
ENDBRANCH  13  18
BRANCH  15  39
HETATM   39  O4  GAL B   2     282.701 259.356 202.620  1.00 21.34    -0.327 OA
BRANCH  39  40
HETATM   40  C1  NGA B   3     282.227 260.026 201.441  1.00 19.80     0.262 C 
HETATM   41  C2  NGA B   3     282.948 261.380 201.298  1.00 20.60     0.192 C 
HETATM   42  C3  NGA B   3     282.556 262.041 199.978  1.00 18.92     0.178 C 
HETATM   43  C4  NGA B   3     282.806 261.081 198.817  1.00 18.56     0.211 C 
HETATM   44  C5  NGA B   3     282.104 259.751 199.115  1.00 20.83     0.184 C 
HETATM   45  O4  NGA B   3     284.190 260.837 198.611  1.00 25.94    -0.218 OA
HETATM   46  O5  NGA B   3     282.635 259.190 200.336  1.00 19.30    -0.327 OA
BRANCH  41  47
HETATM   47  N2  NGA B   3     282.566 262.139 202.492  1.00 20.03    -0.232 NA
HETATM   48  C7  NGA B   3     283.405 262.952 203.167  1.00 20.86     0.252 C 
HETATM   49  C8  NGA B   3     282.828 263.523 204.477  1.00 25.36     0.100 C 
HETATM   50  O7  NGA B   3     284.566 263.150 202.759  1.00 33.51    -0.271 OA
ENDBRANCH  41  47
BRANCH  42  51
HETATM   51  O3  NGA B   3     283.315 263.253 199.761  1.00 18.48    -0.327 OA
BRANCH  51  52
HETATM   52  C1  GAL B   4     282.915 264.028 198.644  1.00 17.31     0.270 C 
HETATM   53  C2  GAL B   4     282.031 265.203 199.038  1.00 14.28     0.241 C 
HETATM   54  C3  GAL B   4     281.653 266.048 197.830  1.00 14.14     0.220 C 
HETATM   55  O2  GAL B   4     280.833 264.716 199.636  1.00 16.82    -0.215 OA
HETATM   56  C4  GAL B   4     282.907 266.454 197.071  1.00 13.05     0.215 C 
HETATM   57  O3  GAL B   4     280.904 267.179 198.226  1.00 14.59    -0.218 OA
HETATM   58  C5  GAL B   4     283.790 265.239 196.818  1.00 15.75     0.184 C 
HETATM   59  O4  GAL B   4     283.590 267.461 197.808  1.00 13.46    -0.218 OA
HETATM   60  O5  GAL B   4     284.115 264.522 198.020  1.00 16.29    -0.326 OA
BRANCH  58  61
HETATM   61  C6  GAL B   4     285.091 265.614 196.099  1.00 16.07     0.215 C 
HETATM   62  O6  GAL B   4     285.066 265.383 194.701  1.00 17.63    -0.218 OA
ENDBRANCH  58  61
ENDBRANCH  51  52
ENDBRANCH  42  51
BRANCH  44  63
HETATM   63  C6  NGA B   3     282.339 258.733 197.989  1.00 23.22     0.215 C 
HETATM   64  O6  NGA B   3     281.948 259.314 196.756  1.00 34.06    -0.218 OA
ENDBRANCH  44  63
ENDBRANCH  39  40
ENDBRANCH  15  39
BRANCH  16  65
HETATM   65  C6  GAL B   2     285.654 259.425 201.992  1.00 20.92     0.214 C 
HETATM   66  O6  GAL B   2     286.149 260.411 202.900  1.00 21.47    -0.218 OA
ENDBRANCH  16  65
ENDBRANCH  10  11
ENDBRANCH   3  10
BRANCH   4  67
HETATM   67  C6  BGC B   1     287.249 258.607 207.272  1.00 24.07     0.214 C 
HETATM   68  O6  BGC B   1     288.223 258.694 208.346  1.00 26.88    -0.218 OA
ENDBRANCH   4  67
TORSDOF 18
ENDMDL
