MODEL 1
REMARK VINA RESULT:      -6.7      0.000      0.000
REMARK  18 active torsions:
REMARK  status: ('A' for Active; 'I' for Inactive)
REMARK    1  A    between atoms: C4_3  and  O4_10 
REMARK    2  A    between atoms: C5_4  and  C6_5 
REMARK    3  A    between atoms: O4_10  and  C1_13 
REMARK    4  A    between atoms: C3_15  and  O3_20 
REMARK    5  A    between atoms: C4_16  and  O4_21 
REMARK    6  A    between atoms: C5_17  and  C6_18 
REMARK    7  A    between atoms: O3_20  and  C2_50 
REMARK    8  A    between atoms: O4_21  and  C1_24 
REMARK    9  A    between atoms: C2_25  and  N2_32 
REMARK   10  A    between atoms: C3_26  and  O3_33 
REMARK   11  A    between atoms: C5_28  and  C6_29 
REMARK       I    between atoms: C7_30  and  N2_32 
REMARK   12  A    between atoms: O3_33  and  C1_38 
REMARK   13  A    between atoms: C5_42  and  C6_43 
REMARK   14  A    between atoms: C1_49  and  C2_50 
REMARK   15  A    between atoms: C5_53  and  N5_60 
REMARK   16  A    between atoms: C6_54  and  C7_55 
REMARK   17  A    between atoms: C7_55  and  C8_56 
REMARK   18  A    between atoms: C8_56  and  C9_57 
REMARK       I    between atoms: C10_58  and  N5_60 
ROOT
HETATM    1  C2  BGC I   1     275.320 256.961 193.402  1.00 21.38     0.244 C 
HETATM    2  C3  BGC I   1     275.959 256.868 194.779  1.00 23.08     0.217 C 
HETATM    3  C4  BGC I   1     275.796 255.423 195.275  1.00 23.78     0.181 C 
HETATM    4  C5  BGC I   1     276.464 254.506 194.253  1.00 23.63     0.181 C 
HETATM    5  C1  BGC I   1     275.846 255.929 192.416  1.00 21.14     0.303 C 
HETATM    6  O1  BGC I   1     275.002 255.889 191.251  1.00 19.41    -0.187 OA
HETATM    7  O2  BGC I   1     275.529 258.294 192.959  1.00 30.88    -0.215 OA
HETATM    8  O3  BGC I   1     275.349 257.772 195.679  1.00 25.83    -0.218 OA
HETATM    9  O5  BGC I   1     275.751 254.645 193.021  1.00 21.93    -0.324 OA
ENDROOT
BRANCH   3  10
HETATM   10  O4  BGC I   1     276.587 255.315 196.453  1.00 24.88    -0.326 OA
BRANCH  10  11
HETATM   11  C1  GAL I   2     277.868 255.937 196.408  1.00 21.60     0.270 C 
HETATM   12  O5  GAL I   2     278.769 254.839 196.270  1.00 21.12    -0.326 OA
HETATM   13  C5  GAL I   2     280.154 255.217 196.172  1.00 19.51     0.180 C 
HETATM   14  C4  GAL I   2     280.534 255.781 197.539  1.00 19.17     0.177 C 
HETATM   15  C3  GAL I   2     279.679 257.051 197.767  1.00 19.53     0.183 C 
HETATM   16  C2  GAL I   2     278.189 256.642 197.713  1.00 22.15     0.238 C 
HETATM   17  O2  GAL I   2     277.396 257.825 197.797  1.00 22.38    -0.215 OA
BRANCH  13  18
HETATM   18  C6  GAL I   2     280.947 253.960 195.846  1.00 21.72     0.214 C 
HETATM   19  O6  GAL I   2     280.156 252.773 195.774  1.00 21.52    -0.218 OA
ENDBRANCH  13  18
BRANCH  14  20
HETATM   20  O4  GAL I   2     280.185 254.838 198.549  1.00 17.56    -0.327 OA
BRANCH  20  21
HETATM   21  C1  NGA I   3     281.059 254.663 199.652  1.00 20.79     0.262 C 
HETATM   22  C2  NGA I   3     280.272 254.480 200.958  1.00 19.16     0.192 C 
HETATM   23  C3  NGA I   3     281.321 254.353 202.056  1.00 17.33     0.178 C 
HETATM   24  C4  NGA I   3     282.351 253.248 201.756  1.00 17.75     0.211 C 
HETATM   25  C5  NGA I   3     283.010 253.458 200.418  1.00 18.50     0.184 C 
HETATM   26  O4  NGA I   3     281.696 251.989 201.868  1.00 21.37    -0.218 OA
HETATM   27  O5  NGA I   3     281.955 253.566 199.441  1.00 18.52    -0.327 OA
BRANCH  22  28
HETATM   28  N2  NGA I   3     279.395 255.635 201.081  1.00 18.63    -0.232 NA
HETATM   29  C7  NGA I   3     278.165 255.576 201.564  1.00 18.81     0.252 C 
HETATM   30  C8  NGA I   3     277.391 256.881 201.381  1.00 18.13     0.100 C 
HETATM   31  O7  NGA I   3     277.667 254.512 202.048  1.00 18.42    -0.271 OA
ENDBRANCH  22  28
BRANCH  23  32
HETATM   32  O3  NGA I   3     280.623 254.015 203.259  1.00 16.00    -0.327 OA
BRANCH  32  33
HETATM   33  C1  GAL I   4     280.929 254.909 204.290  1.00 13.84     0.270 C 
HETATM   34  C2  GAL I   4     281.365 254.104 205.499  1.00 11.13     0.241 C 
HETATM   35  O2  GAL I   4     280.292 253.269 205.951  1.00 11.75    -0.215 OA
HETATM   36  C3  GAL I   4     281.780 255.050 206.604  1.00 10.40     0.220 C 
HETATM   37  O3  GAL I   4     282.296 254.293 207.679  1.00 10.96    -0.218 OA
HETATM   38  C4  GAL I   4     282.905 255.979 206.076  1.00 10.48     0.215 C 
HETATM   39  O4  GAL I   4     284.063 255.250 205.812  1.00 10.75    -0.218 OA
HETATM   40  C5  GAL I   4     282.426 256.660 204.802  1.00 11.91     0.184 C 
HETATM   41  O5  GAL I   4     282.049 255.690 203.803  1.00 12.52    -0.326 OA
BRANCH  40  42
HETATM   42  C6  GAL I   4     283.533 257.473 204.134  1.00 12.85     0.215 C 
HETATM   43  O6  GAL I   4     283.992 256.868 202.926  1.00 14.53    -0.218 OA
ENDBRANCH  40  42
ENDBRANCH  32  33
ENDBRANCH  23  32
BRANCH  25  44
HETATM   44  C6  NGA I   3     283.989 252.430 199.913  1.00 24.09     0.215 C 
HETATM   45  O6  NGA I   3     285.301 252.933 199.736  1.00 34.45    -0.218 OA
ENDBRANCH  25  44
ENDBRANCH  20  21
ENDBRANCH  14  20
BRANCH  15  46
HETATM   46  O3  GAL I   2     279.916 257.485 199.097  1.00 19.83    -0.324 OA
BRANCH  46  47
HETATM   47  C2  SIA I   5     280.533 258.732 199.407  1.00 19.70     0.271 C 
HETATM   48  C3  SIA I   5     279.662 259.731 200.111  1.00 21.90     0.103 C 
HETATM   49  C4  SIA I   5     280.299 261.097 200.256  1.00 21.98     0.182 C 
HETATM   50  O4  SIA I   5     279.313 262.067 200.629  1.00 23.39    -0.221 OA
HETATM   51  C5  SIA I   5     280.974 261.568 198.960  1.00 21.56     0.166 C 
HETATM   52  C6  SIA I   5     281.841 260.469 198.355  1.00 20.61     0.176 C 
HETATM   53  O6  SIA I   5     281.034 259.288 198.207  1.00 21.33    -0.325 OA
BRANCH  47  54
HETATM   54  C1  SIA I   5     281.723 258.397 200.308  1.00 22.23     0.240 C 
HETATM   55  O1A SIA I   5     281.600 258.742 201.532  1.00 17.82    -0.644 OA
HETATM   56  O1B SIA I   5     282.705 257.853 199.757  1.00 18.18    -0.644 OA
ENDBRANCH  47  54
BRANCH  51  57
HETATM   57  N5  SIA I   5     281.724 262.780 199.297  1.00 19.98    -0.235 NA
HETATM   58  C10 SIA I   5     281.691 263.903 198.567  1.00 19.62     0.252 C 
HETATM   59  O10 SIA I   5     281.002 263.990 197.514  1.00 24.06    -0.271 OA
HETATM   60  C11 SIA I   5     282.538 265.061 199.124  1.00 17.86     0.100 C 
ENDBRANCH  51  57
BRANCH  52  61
HETATM   61  C7  SIA I   5     282.411 260.781 196.959  1.00 20.48     0.214 C 
HETATM   62  O7  SIA I   5     281.798 259.938 195.946  1.00 18.83    -0.218 OA
BRANCH  61  63
HETATM   63  C8  SIA I   5     283.893 260.353 196.960  1.00 17.95     0.218 C 
HETATM   64  O8  SIA I   5     283.949 258.951 196.799  1.00 17.57    -0.218 OA
BRANCH  63  65
HETATM   65  C9  SIA I   5     284.482 260.682 198.335  1.00 20.07     0.218 C 
HETATM   66  O9  SIA I   5     284.995 261.979 198.399  1.00 23.55    -0.218 OA
ENDBRANCH  63  65
ENDBRANCH  61  63
ENDBRANCH  52  61
ENDBRANCH  46  47
ENDBRANCH  15  46
ENDBRANCH  10  11
ENDBRANCH   3  10
BRANCH   4  67
HETATM   67  C6  BGC I   1     276.459 253.043 194.689  1.00 22.08     0.214 C 
HETATM   68  O6  BGC I   1     275.165 252.512 194.787  1.00 27.97    -0.218 OA
ENDBRANCH   4  67
TORSDOF 18
ENDMDL
MODEL 2
REMARK VINA RESULT:      -6.3      7.716     14.500
REMARK  18 active torsions:
REMARK  status: ('A' for Active; 'I' for Inactive)
REMARK    1  A    between atoms: C4_3  and  O4_10 
REMARK    2  A    between atoms: C5_4  and  C6_5 
REMARK    3  A    between atoms: O4_10  and  C1_13 
REMARK    4  A    between atoms: C3_15  and  O3_20 
REMARK    5  A    between atoms: C4_16  and  O4_21 
REMARK    6  A    between atoms: C5_17  and  C6_18 
REMARK    7  A    between atoms: O3_20  and  C2_50 
REMARK    8  A    between atoms: O4_21  and  C1_24 
REMARK    9  A    between atoms: C2_25  and  N2_32 
REMARK   10  A    between atoms: C3_26  and  O3_33 
REMARK   11  A    between atoms: C5_28  and  C6_29 
REMARK       I    between atoms: C7_30  and  N2_32 
REMARK   12  A    between atoms: O3_33  and  C1_38 
REMARK   13  A    between atoms: C5_42  and  C6_43 
REMARK   14  A    between atoms: C1_49  and  C2_50 
REMARK   15  A    between atoms: C5_53  and  N5_60 
REMARK   16  A    between atoms: C6_54  and  C7_55 
REMARK   17  A    between atoms: C7_55  and  C8_56 
REMARK   18  A    between atoms: C8_56  and  C9_57 
REMARK       I    between atoms: C10_58  and  N5_60 
ROOT
HETATM    1  C2  BGC I   1     271.027 264.140 189.738  1.00 21.38     0.244 C 
HETATM    2  C3  BGC I   1     272.151 263.331 190.367  1.00 23.08     0.217 C 
HETATM    3  C4  BGC I   1     272.830 262.524 189.249  1.00 23.78     0.181 C 
HETATM    4  C5  BGC I   1     273.332 263.517 188.203  1.00 23.63     0.181 C 
HETATM    5  C1  BGC I   1     271.478 265.003 188.569  1.00 21.14     0.303 C 
HETATM    6  O1  BGC I   1     270.332 265.501 187.856  1.00 19.41    -0.187 OA
HETATM    7  O2  BGC I   1     270.455 264.904 190.789  1.00 30.88    -0.215 OA
HETATM    8  O3  BGC I   1     271.650 262.466 191.367  1.00 25.83    -0.218 OA
HETATM    9  O5  BGC I   1     272.189 264.178 187.654  1.00 21.93    -0.324 OA
ENDROOT
BRANCH   3  10
HETATM   10  O4  BGC I   1     274.000 261.955 189.823  1.00 24.88    -0.326 OA
BRANCH  10  11
HETATM   11  C1  GAL I   2     274.106 260.536 189.757  1.00 21.60     0.270 C 
HETATM   12  O5  GAL I   2     272.980 260.152 188.969  1.00 21.12    -0.326 OA
HETATM   13  C5  GAL I   2     272.878 258.737 188.729  1.00 19.51     0.180 C 
HETATM   14  C4  GAL I   2     272.561 258.103 190.081  1.00 19.17     0.177 C 
HETATM   15  C3  GAL I   2     273.769 258.372 191.011  1.00 19.53     0.183 C 
HETATM   16  C2  GAL I   2     273.953 259.902 191.128  1.00 22.15     0.238 C 
HETATM   17  O2  GAL I   2     275.138 260.156 191.880  1.00 22.38    -0.215 OA
BRANCH  13  18
HETATM   18  C6  GAL I   2     271.748 258.524 187.733  1.00 21.72     0.214 C 
HETATM   19  O6  GAL I   2     271.264 257.180 187.678  1.00 21.52    -0.218 OA
ENDBRANCH  13  18
BRANCH  14  20
HETATM   20  O4  GAL I   2     271.426 258.752 190.649  1.00 17.56    -0.327 OA
BRANCH  20  21
HETATM   21  C1  NGA I   3     270.328 257.961 191.073  1.00 20.79     0.262 C 
HETATM   22  C2  NGA I   3     269.060 258.303 190.276  1.00 19.16     0.192 C 
HETATM   23  C3  NGA I   3     267.958 257.426 190.859  1.00 17.33     0.178 C 
HETATM   24  C4  NGA I   3     268.340 255.934 190.866  1.00 17.75     0.211 C 
HETATM   25  C5  NGA I   3     269.640 255.702 191.592  1.00 18.50     0.184 C 
HETATM   26  O4  NGA I   3     268.359 255.477 189.518  1.00 21.37    -0.218 OA
HETATM   27  O5  NGA I   3     270.623 256.563 190.981  1.00 18.52    -0.327 OA
BRANCH  22  28
HETATM   28  N2  NGA I   3     268.846 259.736 190.429  1.00 18.63    -0.232 NA
HETATM   29  C7  NGA I   3     268.441 260.526 189.449  1.00 18.81     0.252 C 
HETATM   30  C8  NGA I   3     268.508 262.009 189.816  1.00 18.13     0.100 C 
HETATM   31  O7  NGA I   3     268.117 260.088 188.301  1.00 18.42    -0.271 OA
ENDBRANCH  22  28
BRANCH  23  32
HETATM   32  O3  NGA I   3     266.806 257.602 190.028  1.00 16.00    -0.327 OA
BRANCH  32  33
HETATM   33  C1  GAL I   4     265.712 258.059 190.770  1.00 13.84     0.270 C 
HETATM   34  C2  GAL I   4     264.837 256.867 191.105  1.00 11.13     0.241 C 
HETATM   35  O2  GAL I   4     264.331 256.271 189.905  1.00 11.75    -0.215 OA
HETATM   36  C3  GAL I   4     263.687 257.322 191.976  1.00 10.40     0.220 C 
HETATM   37  O3  GAL I   4     262.949 256.188 192.380  1.00 10.96    -0.218 OA
HETATM   38  C4  GAL I   4     264.258 258.010 193.245  1.00 10.48     0.215 C 
HETATM   39  O4  GAL I   4     264.936 257.091 194.043  1.00 10.75    -0.218 OA
HETATM   40  C5  GAL I   4     265.211 259.118 192.818  1.00 11.91     0.184 C 
HETATM   41  O5  GAL I   4     266.274 258.602 191.991  1.00 12.52    -0.326 OA
BRANCH  40  42
HETATM   42  C6  GAL I   4     265.935 259.744 194.009  1.00 12.85     0.215 C 
HETATM   43  O6  GAL I   4     267.348 259.548 193.945  1.00 14.53    -0.218 OA
ENDBRANCH  40  42
ENDBRANCH  32  33
ENDBRANCH  23  32
BRANCH  25  44
HETATM   44  C6  NGA I   3     270.220 254.312 191.629  1.00 24.09     0.215 C 
HETATM   45  O6  NGA I   3     269.869 253.582 192.791  1.00 34.45    -0.218 OA
ENDBRANCH  25  44
ENDBRANCH  20  21
ENDBRANCH  14  20
BRANCH  15  46
HETATM   46  O3  GAL I   2     273.410 257.922 192.308  1.00 19.83    -0.324 OA
BRANCH  46  47
HETATM   47  C2  SIA I   5     274.074 256.846 192.966  1.00 19.70     0.271 C 
HETATM   48  C3  SIA I   5     275.053 257.241 194.033  1.00 21.90     0.103 C 
HETATM   49  C4  SIA I   5     275.863 256.081 194.574  1.00 21.98     0.182 C 
HETATM   50  O4  SIA I   5     276.980 256.565 195.329  1.00 23.39    -0.221 OA
HETATM   51  C5  SIA I   5     276.393 255.167 193.459  1.00 21.56     0.166 C 
HETATM   52  C6  SIA I   5     275.298 254.828 192.453  1.00 20.61     0.176 C 
HETATM   53  O6  SIA I   5     274.719 256.058 191.985  1.00 21.33    -0.325 OA
BRANCH  47  54
HETATM   54  C1  SIA I   5     272.970 256.001 193.603  1.00 22.23     0.240 C 
HETATM   55  O1A SIA I   5     272.163 256.633 194.366  1.00 17.82    -0.644 OA
HETATM   56  O1B SIA I   5     272.984 254.777 193.343  1.00 18.18    -0.644 OA
ENDBRANCH  47  54
BRANCH  51  57
HETATM   57  N5  SIA I   5     276.960 253.989 194.120  1.00 19.98    -0.235 NA
HETATM   58  C10 SIA I   5     278.245 253.626 194.020  1.00 19.62     0.252 C 
HETATM   59  O10 SIA I   5     279.069 254.285 193.329  1.00 24.06    -0.271 OA
HETATM   60  C11 SIA I   5     278.625 252.368 194.820  1.00 17.86     0.100 C 
ENDBRANCH  51  57
BRANCH  52  61
HETATM   61  C7  SIA I   5     275.776 254.070 191.200  1.00 20.48     0.214 C 
HETATM   62  O7  SIA I   5     277.040 254.602 190.721  1.00 18.83    -0.218 OA
BRANCH  61  63
HETATM   63  C8  SIA I   5     274.780 254.383 190.065  1.00 17.95     0.218 C 
HETATM   64  O8  SIA I   5     273.933 253.267 189.897  1.00 17.57    -0.218 OA
BRANCH  63  65
HETATM   65  C9  SIA I   5     275.577 254.554 188.767  1.00 20.07     0.218 C 
HETATM   66  O9  SIA I   5     275.255 253.589 187.812  1.00 23.55    -0.218 OA
ENDBRANCH  63  65
ENDBRANCH  61  63
ENDBRANCH  52  61
ENDBRANCH  46  47
ENDBRANCH  15  46
ENDBRANCH  10  11
ENDBRANCH   3  10
BRANCH   4  67
HETATM   67  C6  BGC I   1     274.122 262.839 187.085  1.00 22.08     0.214 C 
HETATM   68  O6  BGC I   1     273.964 263.478 185.847  1.00 27.97    -0.218 OA
ENDBRANCH   4  67
TORSDOF 18
ENDMDL
MODEL 3
REMARK VINA RESULT:      -6.1      1.343      2.541
REMARK  18 active torsions:
REMARK  status: ('A' for Active; 'I' for Inactive)
REMARK    1  A    between atoms: C4_3  and  O4_10 
REMARK    2  A    between atoms: C5_4  and  C6_5 
REMARK    3  A    between atoms: O4_10  and  C1_13 
REMARK    4  A    between atoms: C3_15  and  O3_20 
REMARK    5  A    between atoms: C4_16  and  O4_21 
REMARK    6  A    between atoms: C5_17  and  C6_18 
REMARK    7  A    between atoms: O3_20  and  C2_50 
REMARK    8  A    between atoms: O4_21  and  C1_24 
REMARK    9  A    between atoms: C2_25  and  N2_32 
REMARK   10  A    between atoms: C3_26  and  O3_33 
REMARK   11  A    between atoms: C5_28  and  C6_29 
REMARK       I    between atoms: C7_30  and  N2_32 
REMARK   12  A    between atoms: O3_33  and  C1_38 
REMARK   13  A    between atoms: C5_42  and  C6_43 
REMARK   14  A    between atoms: C1_49  and  C2_50 
REMARK   15  A    between atoms: C5_53  and  N5_60 
REMARK   16  A    between atoms: C6_54  and  C7_55 
REMARK   17  A    between atoms: C7_55  and  C8_56 
REMARK   18  A    between atoms: C8_56  and  C9_57 
REMARK       I    between atoms: C10_58  and  N5_60 
ROOT
HETATM    1  C2  BGC I   1     275.459 253.210 193.474  1.00 21.38     0.244 C 
HETATM    2  C3  BGC I   1     276.227 253.446 194.765  1.00 23.08     0.217 C 
HETATM    3  C4  BGC I   1     276.551 254.946 194.851  1.00 23.78     0.181 C 
HETATM    4  C5  BGC I   1     275.228 255.707 194.805  1.00 23.63     0.181 C 
HETATM    5  C1  BGC I   1     274.231 254.095 193.326  1.00 21.14     0.303 C 
HETATM    6  O1  BGC I   1     273.735 254.023 191.977  1.00 19.41    -0.187 OA
HETATM    7  O2  BGC I   1     275.140 251.827 193.452  1.00 30.88    -0.215 OA
HETATM    8  O3  BGC I   1     277.416 252.681 194.791  1.00 25.83    -0.218 OA
HETATM    9  O5  BGC I   1     274.626 255.446 193.534  1.00 21.93    -0.324 OA
ENDROOT
BRANCH   3  10
HETATM   10  O4  BGC I   1     277.069 255.168 196.157  1.00 24.88    -0.326 OA
BRANCH  10  11
HETATM   11  C1  GAL I   2     278.320 255.847 196.229  1.00 21.60     0.270 C 
HETATM   12  O5  GAL I   2     279.279 254.795 196.124  1.00 21.12    -0.326 OA
HETATM   13  C5  GAL I   2     280.649 255.238 196.142  1.00 19.51     0.180 C 
HETATM   14  C4  GAL I   2     280.899 255.769 197.551  1.00 19.17     0.177 C 
HETATM   15  C3  GAL I   2     279.971 256.991 197.756  1.00 19.53     0.183 C 
HETATM   16  C2  GAL I   2     278.511 256.518 197.577  1.00 22.15     0.238 C 
HETATM   17  O2  GAL I   2     277.659 257.661 197.640  1.00 22.38    -0.215 OA
BRANCH  13  18
HETATM   18  C6  GAL I   2     281.521 254.031 195.836  1.00 21.72     0.214 C 
HETATM   19  O6  GAL I   2     281.843 253.877 194.453  1.00 21.52    -0.218 OA
ENDBRANCH  13  18
BRANCH  14  20
HETATM   20  O4  GAL I   2     280.521 254.775 198.501  1.00 17.56    -0.327 OA
BRANCH  20  21
HETATM   21  C1  NGA I   3     281.417 254.461 199.555  1.00 20.79     0.262 C 
HETATM   22  C2  NGA I   3     280.656 254.066 200.829  1.00 19.16     0.192 C 
HETATM   23  C3  NGA I   3     281.725 253.805 201.883  1.00 17.33     0.178 C 
HETATM   24  C4  NGA I   3     282.776 252.784 201.410  1.00 17.75     0.211 C 
HETATM   25  C5  NGA I   3     283.409 253.208 200.109  1.00 18.50     0.184 C 
HETATM   26  O4  NGA I   3     282.153 251.506 201.341  1.00 21.37    -0.218 OA
HETATM   27  O5  NGA I   3     282.335 253.431 199.172  1.00 18.52    -0.327 OA
BRANCH  22  28
HETATM   28  N2  NGA I   3     279.754 255.168 201.133  1.00 18.63    -0.232 NA
HETATM   29  C7  NGA I   3     278.538 255.006 201.629  1.00 18.81     0.252 C 
HETATM   30  C8  NGA I   3     277.727 256.302 201.649  1.00 18.13     0.100 C 
HETATM   31  O7  NGA I   3     278.078 253.870 201.967  1.00 18.42    -0.271 OA
ENDBRANCH  22  28
BRANCH  23  32
HETATM   32  O3  NGA I   3     281.054 253.275 203.031  1.00 16.00    -0.327 OA
BRANCH  32  33
HETATM   33  C1  GAL I   4     281.863 253.351 204.170  1.00 13.84     0.270 C 
HETATM   34  C2  GAL I   4     281.164 254.231 205.188  1.00 11.13     0.241 C 
HETATM   35  O2  GAL I   4     281.011 255.559 204.671  1.00 11.75    -0.215 OA
HETATM   36  C3  GAL I   4     281.981 254.266 206.460  1.00 10.40     0.220 C 
HETATM   37  O3  GAL I   4     281.263 254.989 207.439  1.00 10.96    -0.218 OA
HETATM   38  C4  GAL I   4     282.177 252.814 206.972  1.00 10.48     0.215 C 
HETATM   39  O4  GAL I   4     280.962 252.263 207.372  1.00 10.75    -0.218 OA
HETATM   40  C5  GAL I   4     282.778 251.974 205.853  1.00 11.91     0.184 C 
HETATM   41  O5  GAL I   4     281.942 251.996 204.678  1.00 12.52    -0.326 OA
BRANCH  40  42
HETATM   42  C6  GAL I   4     282.860 250.495 206.226  1.00 12.85     0.215 C 
HETATM   43  O6  GAL I   4     284.195 249.995 206.156  1.00 14.53    -0.218 OA
ENDBRANCH  40  42
ENDBRANCH  32  33
ENDBRANCH  23  32
BRANCH  25  44
HETATM   44  C6  NGA I   3     284.403 252.291 199.445  1.00 24.09     0.215 C 
HETATM   45  O6  NGA I   3     285.394 252.973 198.699  1.00 34.45    -0.218 OA
ENDBRANCH  25  44
ENDBRANCH  20  21
ENDBRANCH  14  20
BRANCH  15  46
HETATM   46  O3  GAL I   2     280.089 257.386 199.114  1.00 19.83    -0.324 OA
BRANCH  46  47
HETATM   47  C2  SIA I   5     280.653 258.633 199.511  1.00 19.70     0.271 C 
HETATM   48  C3  SIA I   5     279.726 259.565 200.235  1.00 21.90     0.103 C 
HETATM   49  C4  SIA I   5     280.312 260.941 200.475  1.00 21.98     0.182 C 
HETATM   50  O4  SIA I   5     279.283 261.859 200.862  1.00 23.39    -0.221 OA
HETATM   51  C5  SIA I   5     281.016 261.502 199.230  1.00 21.56     0.166 C 
HETATM   52  C6  SIA I   5     281.939 260.464 198.601  1.00 20.61     0.176 C 
HETATM   53  O6  SIA I   5     281.177 259.269 198.362  1.00 21.33    -0.325 OA
BRANCH  47  54
HETATM   54  C1  SIA I   5     281.822 258.288 200.436  1.00 22.23     0.240 C 
HETATM   55  O1A SIA I   5     282.829 257.743 199.870  1.00 17.82    -0.644 OA
HETATM   56  O1B SIA I   5     281.666 258.540 201.651  1.00 18.18    -0.644 OA
ENDBRANCH  47  54
BRANCH  51  57
HETATM   57  N5  SIA I   5     281.713 262.717 199.658  1.00 19.98    -0.235 NA
HETATM   58  C10 SIA I   5     281.694 263.867 198.970  1.00 19.62     0.252 C 
HETATM   59  O10 SIA I   5     281.067 263.979 197.883  1.00 24.06    -0.271 OA
HETATM   60  C11 SIA I   5     282.477 265.021 199.622  1.00 17.86     0.100 C 
ENDBRANCH  51  57
BRANCH  52  61
HETATM   61  C7  SIA I   5     282.547 260.869 197.244  1.00 20.48     0.214 C 
HETATM   62  O7  SIA I   5     281.505 261.157 196.273  1.00 18.83    -0.218 OA
BRANCH  61  63
HETATM   63  C8  SIA I   5     283.264 259.629 196.672  1.00 17.95     0.218 C 
HETATM   64  O8  SIA I   5     284.651 259.890 196.650  1.00 17.57    -0.218 OA
BRANCH  63  65
HETATM   65  C9  SIA I   5     282.808 259.443 195.221  1.00 20.07     0.218 C 
HETATM   66  O9  SIA I   5     281.975 258.335 195.061  1.00 23.55    -0.218 OA
ENDBRANCH  63  65
ENDBRANCH  61  63
ENDBRANCH  52  61
ENDBRANCH  46  47
ENDBRANCH  15  46
ENDBRANCH  10  11
ENDBRANCH   3  10
BRANCH   4  67
HETATM   67  C6  BGC I   1     275.412 257.212 194.988  1.00 22.08     0.214 C 
HETATM   68  O6  BGC I   1     275.546 257.892 193.769  1.00 27.97    -0.218 OA
ENDBRANCH   4  67
TORSDOF 18
ENDMDL
MODEL 4
REMARK VINA RESULT:      -6.0      8.123     13.043
REMARK  18 active torsions:
REMARK  status: ('A' for Active; 'I' for Inactive)
REMARK    1  A    between atoms: C4_3  and  O4_10 
REMARK    2  A    between atoms: C5_4  and  C6_5 
REMARK    3  A    between atoms: O4_10  and  C1_13 
REMARK    4  A    between atoms: C3_15  and  O3_20 
REMARK    5  A    between atoms: C4_16  and  O4_21 
REMARK    6  A    between atoms: C5_17  and  C6_18 
REMARK    7  A    between atoms: O3_20  and  C2_50 
REMARK    8  A    between atoms: O4_21  and  C1_24 
REMARK    9  A    between atoms: C2_25  and  N2_32 
REMARK   10  A    between atoms: C3_26  and  O3_33 
REMARK   11  A    between atoms: C5_28  and  C6_29 
REMARK       I    between atoms: C7_30  and  N2_32 
REMARK   12  A    between atoms: O3_33  and  C1_38 
REMARK   13  A    between atoms: C5_42  and  C6_43 
REMARK   14  A    between atoms: C1_49  and  C2_50 
REMARK   15  A    between atoms: C5_53  and  N5_60 
REMARK   16  A    between atoms: C6_54  and  C7_55 
REMARK   17  A    between atoms: C7_55  and  C8_56 
REMARK   18  A    between atoms: C8_56  and  C9_57 
REMARK       I    between atoms: C10_58  and  N5_60 
ROOT
HETATM    1  C2  BGC I   1     282.288 250.844 184.587  1.00 21.38     0.244 C 
HETATM    2  C3  BGC I   1     281.153 250.570 185.562  1.00 23.08     0.217 C 
HETATM    3  C4  BGC I   1     280.215 251.787 185.544  1.00 23.78     0.181 C 
HETATM    4  C5  BGC I   1     279.727 251.972 184.109  1.00 23.63     0.181 C 
HETATM    5  C1  BGC I   1     281.813 251.211 183.189  1.00 21.14     0.303 C 
HETATM    6  O1  BGC I   1     282.912 251.731 182.419  1.00 19.41    -0.187 OA
HETATM    7  O2  BGC I   1     283.106 249.684 184.597  1.00 30.88    -0.215 OA
HETATM    8  O3  BGC I   1     281.653 250.349 186.866  1.00 25.83    -0.218 OA
HETATM    9  O5  BGC I   1     280.869 252.269 183.302  1.00 21.93    -0.324 OA
ENDROOT
BRANCH   3  10
HETATM   10  O4  BGC I   1     279.063 251.413 186.290  1.00 24.88    -0.326 OA
BRANCH  10  11
HETATM   11  C1  GAL I   2     278.869 252.092 187.528  1.00 21.60     0.270 C 
HETATM   12  O5  GAL I   2     279.255 251.125 188.504  1.00 21.12    -0.326 OA
HETATM   13  C5  GAL I   2     279.174 251.591 189.864  1.00 19.51     0.180 C 
HETATM   14  C4  GAL I   2     277.687 251.775 190.157  1.00 19.17     0.177 C 
HETATM   15  C3  GAL I   2     277.165 252.885 189.212  1.00 19.53     0.183 C 
HETATM   16  C2  GAL I   2     277.406 252.426 187.755  1.00 22.15     0.238 C 
HETATM   17  O2  GAL I   2     277.043 253.494 186.883  1.00 22.38    -0.215 OA
BRANCH  13  18
HETATM   18  C6  GAL I   2     279.789 250.519 190.750  1.00 21.72     0.214 C 
HETATM   19  O6  GAL I   2     280.723 249.671 190.078  1.00 21.52    -0.218 OA
ENDBRANCH  13  18
BRANCH  14  20
HETATM   20  O4  GAL I   2     276.993 250.572 189.836  1.00 17.56    -0.327 OA
BRANCH  20  21
HETATM   21  C1  NGA I   3     276.291 249.893 190.865  1.00 20.79     0.262 C 
HETATM   22  C2  NGA I   3     276.707 248.417 190.936  1.00 19.16     0.192 C 
HETATM   23  C3  NGA I   3     275.852 247.801 192.038  1.00 17.33     0.178 C 
HETATM   24  C4  NGA I   3     275.963 248.574 193.365  1.00 17.75     0.211 C 
HETATM   25  C5  NGA I   3     275.623 250.031 193.184  1.00 18.50     0.184 C 
HETATM   26  O4  NGA I   3     277.268 248.362 193.892  1.00 21.37    -0.218 OA
HETATM   27  O5  NGA I   3     276.473 250.534 192.133  1.00 18.52    -0.327 OA
BRANCH  22  28
HETATM   28  N2  NGA I   3     276.489 247.858 189.609  1.00 18.63    -0.232 NA
HETATM   29  C7  NGA I   3     277.428 247.247 188.907  1.00 18.81     0.252 C 
HETATM   30  C8  NGA I   3     276.998 246.952 187.470  1.00 18.13     0.100 C 
HETATM   31  O7  NGA I   3     278.590 247.013 189.367  1.00 18.42    -0.271 OA
ENDBRANCH  22  28
BRANCH  23  32
HETATM   32  O3  NGA I   3     276.333 246.468 192.240  1.00 16.00    -0.327 OA
BRANCH  32  33
HETATM   33  C1  GAL I   4     275.346 245.523 191.944  1.00 13.84     0.270 C 
HETATM   34  C2  GAL I   4     274.994 244.791 193.225  1.00 11.13     0.241 C 
HETATM   35  O2  GAL I   4     276.138 244.086 193.722  1.00 11.75    -0.215 OA
HETATM   36  C3  GAL I   4     273.871 243.817 192.948  1.00 10.40     0.220 C 
HETATM   37  O3  GAL I   4     273.471 243.229 194.169  1.00 10.96    -0.218 OA
HETATM   38  C4  GAL I   4     272.662 244.595 192.363  1.00 10.48     0.215 C 
HETATM   39  O4  GAL I   4     272.125 245.461 193.313  1.00 10.75    -0.218 OA
HETATM   40  C5  GAL I   4     273.128 245.389 191.151  1.00 11.91     0.184 C 
HETATM   41  O5  GAL I   4     274.200 246.290 191.498  1.00 12.52    -0.326 OA
BRANCH  40  42
HETATM   42  C6  GAL I   4     272.032 246.304 190.608  1.00 12.85     0.215 C 
HETATM   43  O6  GAL I   4     272.384 247.684 190.707  1.00 14.53    -0.218 OA
ENDBRANCH  40  42
ENDBRANCH  32  33
ENDBRANCH  23  32
BRANCH  25  44
HETATM   44  C6  NGA I   3     275.758 250.965 194.358  1.00 24.09     0.215 C 
HETATM   45  O6  NGA I   3     275.272 250.424 195.574  1.00 34.45    -0.218 OA
ENDBRANCH  25  44
ENDBRANCH  20  21
ENDBRANCH  14  20
BRANCH  15  46
HETATM   46  O3  GAL I   2     275.757 252.946 189.372  1.00 19.83    -0.324 OA
BRANCH  46  47
HETATM   47  C2  SIA I   5     275.079 254.113 189.831  1.00 19.70     0.271 C 
HETATM   48  C3  SIA I   5     274.652 255.079 188.764  1.00 21.90     0.103 C 
HETATM   49  C4  SIA I   5     274.103 256.381 189.307  1.00 21.98     0.182 C 
HETATM   50  O4  SIA I   5     274.027 257.361 188.266  1.00 23.39    -0.221 OA
HETATM   51  C5  SIA I   5     274.966 256.951 190.443  1.00 21.56     0.166 C 
HETATM   52  C6  SIA I   5     275.316 255.875 191.466  1.00 20.61     0.176 C 
HETATM   53  O6  SIA I   5     275.910 254.767 190.770  1.00 21.33    -0.325 OA
BRANCH  47  54
HETATM   54  C1  SIA I   5     273.835 253.613 190.567  1.00 22.23     0.240 C 
HETATM   55  O1A SIA I   5     274.058 252.941 191.630  1.00 17.82    -0.644 OA
HETATM   56  O1B SIA I   5     272.731 253.881 190.043  1.00 18.18    -0.644 OA
ENDBRANCH  47  54
BRANCH  51  57
HETATM   57  N5  SIA I   5     274.216 258.073 191.014  1.00 19.98    -0.235 NA
HETATM   58  C10 SIA I   5     274.623 259.347 190.952  1.00 19.62     0.252 C 
HETATM   59  O10 SIA I   5     275.705 259.672 190.393  1.00 24.06    -0.271 OA
HETATM   60  C11 SIA I   5     273.663 260.364 191.596  1.00 17.86     0.100 C 
ENDBRANCH  51  57
BRANCH  52  61
HETATM   61  C7  SIA I   5     276.330 256.304 192.543  1.00 20.48     0.214 C 
HETATM   62  O7  SIA I   5     277.680 255.914 192.172  1.00 18.83    -0.218 OA
BRANCH  61  63
HETATM   63  C8  SIA I   5     276.033 255.478 193.811  1.00 17.95     0.218 C 
HETATM   64  O8  SIA I   5     274.639 255.271 193.890  1.00 17.57    -0.218 OA
BRANCH  63  65
HETATM   65  C9  SIA I   5     276.445 256.311 195.029  1.00 20.07     0.218 C 
HETATM   66  O9  SIA I   5     275.684 257.474 195.162  1.00 23.55    -0.218 OA
ENDBRANCH  63  65
ENDBRANCH  61  63
ENDBRANCH  52  61
ENDBRANCH  46  47
ENDBRANCH  15  46
ENDBRANCH  10  11
ENDBRANCH   3  10
BRANCH   4  67
HETATM   67  C6  BGC I   1     278.700 253.095 183.982  1.00 22.08     0.214 C 
HETATM   68  O6  BGC I   1     278.578 253.571 182.668  1.00 27.97    -0.218 OA
ENDBRANCH   4  67
TORSDOF 18
ENDMDL
MODEL 5
REMARK VINA RESULT:      -5.9     15.112     18.375
REMARK  18 active torsions:
REMARK  status: ('A' for Active; 'I' for Inactive)
REMARK    1  A    between atoms: C4_3  and  O4_10 
REMARK    2  A    between atoms: C5_4  and  C6_5 
REMARK    3  A    between atoms: O4_10  and  C1_13 
REMARK    4  A    between atoms: C3_15  and  O3_20 
REMARK    5  A    between atoms: C4_16  and  O4_21 
REMARK    6  A    between atoms: C5_17  and  C6_18 
REMARK    7  A    between atoms: O3_20  and  C2_50 
REMARK    8  A    between atoms: O4_21  and  C1_24 
REMARK    9  A    between atoms: C2_25  and  N2_32 
REMARK   10  A    between atoms: C3_26  and  O3_33 
REMARK   11  A    between atoms: C5_28  and  C6_29 
REMARK       I    between atoms: C7_30  and  N2_32 
REMARK   12  A    between atoms: O3_33  and  C1_38 
REMARK   13  A    between atoms: C5_42  and  C6_43 
REMARK   14  A    between atoms: C1_49  and  C2_50 
REMARK   15  A    between atoms: C5_53  and  N5_60 
REMARK   16  A    between atoms: C6_54  and  C7_55 
REMARK   17  A    between atoms: C7_55  and  C8_56 
REMARK   18  A    between atoms: C8_56  and  C9_57 
REMARK       I    between atoms: C10_58  and  N5_60 
ROOT
HETATM    1  C2  BGC I   1     269.100 244.981 189.441  1.00 21.38     0.244 C 
HETATM    2  C3  BGC I   1     268.585 246.369 189.793  1.00 23.08     0.217 C 
HETATM    3  C4  BGC I   1     269.675 247.079 190.612  1.00 23.78     0.181 C 
HETATM    4  C5  BGC I   1     270.940 247.120 189.759  1.00 23.63     0.181 C 
HETATM    5  C1  BGC I   1     270.455 244.993 188.749  1.00 21.14     0.303 C 
HETATM    6  O1  BGC I   1     270.998 243.661 188.714  1.00 19.41    -0.187 OA
HETATM    7  O2  BGC I   1     268.090 244.374 188.650  1.00 30.88    -0.215 OA
HETATM    8  O3  BGC I   1     267.384 246.286 190.535  1.00 25.83    -0.218 OA
HETATM    9  O5  BGC I   1     271.351 245.769 189.536  1.00 21.93    -0.324 OA
ENDROOT
BRANCH   3  10
HETATM   10  O4  BGC I   1     269.259 248.434 190.737  1.00 24.88    -0.326 OA
BRANCH  10  11
HETATM   11  C1  GAL I   2     269.148 248.937 192.065  1.00 21.60     0.270 C 
HETATM   12  O5  GAL I   2     269.614 247.857 192.873  1.00 21.12    -0.326 OA
HETATM   13  C5  GAL I   2     269.627 248.135 194.285  1.00 19.51     0.180 C 
HETATM   14  C4  GAL I   2     268.163 248.249 194.704  1.00 19.17     0.177 C 
HETATM   15  C3  GAL I   2     267.563 249.465 193.956  1.00 19.53     0.183 C 
HETATM   16  C2  GAL I   2     267.702 249.209 192.438  1.00 22.15     0.238 C 
HETATM   17  O2  GAL I   2     267.266 250.377 191.745  1.00 22.38    -0.215 OA
BRANCH  13  18
HETATM   18  C6  GAL I   2     270.315 246.966 194.973  1.00 21.72     0.214 C 
HETATM   19  O6  GAL I   2     270.761 245.943 194.080  1.00 21.52    -0.218 OA
ENDBRANCH  13  18
BRANCH  14  20
HETATM   20  O4  GAL I   2     267.460 247.087 194.274  1.00 17.56    -0.327 OA
BRANCH  20  21
HETATM   21  C1  NGA I   3     266.908 246.221 195.253  1.00 20.79     0.262 C 
HETATM   22  C2  NGA I   3     265.646 245.522 194.725  1.00 19.16     0.192 C 
HETATM   23  C3  NGA I   3     265.134 244.670 195.880  1.00 17.33     0.178 C 
HETATM   24  C4  NGA I   3     266.217 243.726 196.436  1.00 17.75     0.211 C 
HETATM   25  C5  NGA I   3     267.451 244.486 196.847  1.00 18.50     0.184 C 
HETATM   26  O4  NGA I   3     266.473 242.723 195.458  1.00 21.37    -0.218 OA
HETATM   27  O5  NGA I   3     267.869 245.260 195.704  1.00 18.52    -0.327 OA
BRANCH  22  28
HETATM   28  N2  NGA I   3     264.738 246.575 194.293  1.00 18.63    -0.232 NA
HETATM   29  C7  NGA I   3     264.138 246.589 193.114  1.00 18.81     0.252 C 
HETATM   30  C8  NGA I   3     263.416 247.906 192.830  1.00 18.13     0.100 C 
HETATM   31  O7  NGA I   3     264.233 245.633 192.282  1.00 18.42    -0.271 OA
ENDBRANCH  22  28
BRANCH  23  32
HETATM   32  O3  NGA I   3     264.056 243.881 195.366  1.00 16.00    -0.327 OA
BRANCH  32  33
HETATM   33  C1  GAL I   4     262.961 243.891 196.237  1.00 13.84     0.270 C 
HETATM   34  C2  GAL I   4     263.229 242.888 197.343  1.00 11.13     0.241 C 
HETATM   35  O2  GAL I   4     263.340 241.567 196.797  1.00 11.75    -0.215 OA
HETATM   36  C3  GAL I   4     262.095 242.936 198.343  1.00 10.40     0.220 C 
HETATM   37  O3  GAL I   4     262.412 242.087 199.427  1.00 10.96    -0.218 OA
HETATM   38  C4  GAL I   4     261.960 244.385 198.881  1.00 10.48     0.215 C 
HETATM   39  O4  GAL I   4     263.079 244.740 199.630  1.00 10.75    -0.218 OA
HETATM   40  C5  GAL I   4     261.809 245.337 197.703  1.00 11.91     0.184 C 
HETATM   41  O5  GAL I   4     262.927 245.227 196.797  1.00 12.52    -0.326 OA
BRANCH  40  42
HETATM   42  C6  GAL I   4     261.825 246.800 198.140  1.00 12.85     0.215 C 
HETATM   43  O6  GAL I   4     262.331 247.662 197.121  1.00 14.53    -0.218 OA
ENDBRANCH  40  42
ENDBRANCH  32  33
ENDBRANCH  23  32
BRANCH  25  44
HETATM   44  C6  NGA I   3     268.653 243.721 197.337  1.00 24.09     0.215 C 
HETATM   45  O6  NGA I   3     269.625 243.486 196.334  1.00 34.45    -0.218 OA
ENDBRANCH  25  44
ENDBRANCH  20  21
ENDBRANCH  14  20
BRANCH  15  46
HETATM   46  O3  GAL I   2     266.170 249.476 194.223  1.00 19.83    -0.324 OA
BRANCH  46  47
HETATM   47  C2  SIA I   5     265.501 250.593 194.804  1.00 19.70     0.271 C 
HETATM   48  C3  SIA I   5     264.341 250.264 195.698  1.00 21.90     0.103 C 
HETATM   49  C4  SIA I   5     263.554 251.478 196.144  1.00 21.98     0.182 C 
HETATM   50  O4  SIA I   5     262.299 251.077 196.706  1.00 23.39    -0.221 OA
HETATM   51  C5  SIA I   5     263.275 252.452 194.989  1.00 21.56     0.166 C 
HETATM   52  C6  SIA I   5     264.535 252.714 194.170  1.00 20.61     0.176 C 
HETATM   53  O6  SIA I   5     265.079 251.449 193.760  1.00 21.33    -0.325 OA
BRANCH  47  54
HETATM   54  C1  SIA I   5     266.559 251.333 195.625  1.00 22.23     0.240 C 
HETATM   55  O1A SIA I   5     266.586 251.049 196.870  1.00 17.82    -0.644 OA
HETATM   56  O1B SIA I   5     267.265 252.161 195.009  1.00 18.18    -0.644 OA
ENDBRANCH  47  54
BRANCH  51  57
HETATM   57  N5  SIA I   5     262.710 253.662 195.590  1.00 19.98    -0.235 NA
HETATM   58  C10 SIA I   5     261.516 254.170 195.257  1.00 19.62     0.252 C 
HETATM   59  O10 SIA I   5     260.787 253.632 194.380  1.00 24.06    -0.271 OA
HETATM   60  C11 SIA I   5     261.113 255.434 196.037  1.00 17.86     0.100 C 
ENDBRANCH  51  57
BRANCH  52  61
HETATM   61  C7  SIA I   5     264.318 253.531 192.882  1.00 20.48     0.214 C 
HETATM   62  O7  SIA I   5     264.893 252.851 191.733  1.00 18.83    -0.218 OA
BRANCH  61  63
HETATM   63  C8  SIA I   5     265.149 254.824 193.010  1.00 17.95     0.218 C 
HETATM   64  O8  SIA I   5     264.484 255.850 192.305  1.00 17.57    -0.218 OA
BRANCH  63  65
HETATM   65  C9  SIA I   5     266.498 254.592 192.321  1.00 20.07     0.218 C 
HETATM   66  O9  SIA I   5     267.450 255.549 192.676  1.00 23.55    -0.218 OA
ENDBRANCH  63  65
ENDBRANCH  61  63
ENDBRANCH  52  61
ENDBRANCH  46  47
ENDBRANCH  15  46
ENDBRANCH  10  11
ENDBRANCH   3  10
BRANCH   4  67
HETATM   67  C6  BGC I   1     272.071 247.899 190.428  1.00 22.08     0.214 C 
HETATM   68  O6  BGC I   1     272.615 247.223 191.529  1.00 27.97    -0.218 OA
ENDBRANCH   4  67
TORSDOF 18
ENDMDL
MODEL 6
REMARK VINA RESULT:      -5.9     15.246     19.995
REMARK  18 active torsions:
REMARK  status: ('A' for Active; 'I' for Inactive)
REMARK    1  A    between atoms: C4_3  and  O4_10 
REMARK    2  A    between atoms: C5_4  and  C6_5 
REMARK    3  A    between atoms: O4_10  and  C1_13 
REMARK    4  A    between atoms: C3_15  and  O3_20 
REMARK    5  A    between atoms: C4_16  and  O4_21 
REMARK    6  A    between atoms: C5_17  and  C6_18 
REMARK    7  A    between atoms: O3_20  and  C2_50 
REMARK    8  A    between atoms: O4_21  and  C1_24 
REMARK    9  A    between atoms: C2_25  and  N2_32 
REMARK   10  A    between atoms: C3_26  and  O3_33 
REMARK   11  A    between atoms: C5_28  and  C6_29 
REMARK       I    between atoms: C7_30  and  N2_32 
REMARK   12  A    between atoms: O3_33  and  C1_38 
REMARK   13  A    between atoms: C5_42  and  C6_43 
REMARK   14  A    between atoms: C1_49  and  C2_50 
REMARK   15  A    between atoms: C5_53  and  N5_60 
REMARK   16  A    between atoms: C6_54  and  C7_55 
REMARK   17  A    between atoms: C7_55  and  C8_56 
REMARK   18  A    between atoms: C8_56  and  C9_57 
REMARK       I    between atoms: C10_58  and  N5_60 
ROOT
HETATM    1  C2  BGC I   1     262.889 244.366 196.945  1.00 21.38     0.244 C 
HETATM    2  C3  BGC I   1     263.603 244.297 195.603  1.00 23.08     0.217 C 
HETATM    3  C4  BGC I   1     265.052 243.856 195.866  1.00 23.78     0.181 C 
HETATM    4  C5  BGC I   1     265.001 242.505 196.576  1.00 23.63     0.181 C 
HETATM    5  C1  BGC I   1     262.984 243.080 197.751  1.00 21.14     0.303 C 
HETATM    6  O1  BGC I   1     262.547 243.315 199.102  1.00 19.41    -0.187 OA
HETATM    7  O2  BGC I   1     261.547 244.732 196.659  1.00 30.88    -0.215 OA
HETATM    8  O3  BGC I   1     263.579 245.554 194.955  1.00 25.83    -0.218 OA
HETATM    9  O5  BGC I   1     264.354 242.706 197.836  1.00 21.93    -0.324 OA
ENDROOT
BRANCH   3  10
HETATM   10  O4  BGC I   1     265.624 243.592 194.591  1.00 24.88    -0.326 OA
BRANCH  10  11
HETATM   11  C1  GAL I   2     266.838 244.275 194.294  1.00 21.60     0.270 C 
HETATM   12  O5  GAL I   2     266.686 245.532 194.952  1.00 21.12    -0.326 OA
HETATM   13  C5  GAL I   2     267.819 246.411 194.822  1.00 19.51     0.180 C 
HETATM   14  C4  GAL I   2     267.870 246.816 193.352  1.00 19.17     0.177 C 
HETATM   15  C3  GAL I   2     268.131 245.531 192.528  1.00 19.53     0.183 C 
HETATM   16  C2  GAL I   2     266.977 244.541 192.806  1.00 22.15     0.238 C 
HETATM   17  O2  GAL I   2     267.275 243.310 192.150  1.00 22.38    -0.215 OA
BRANCH  13  18
HETATM   18  C6  GAL I   2     267.569 247.610 195.724  1.00 21.72     0.214 C 
HETATM   19  O6  GAL I   2     268.379 248.747 195.421  1.00 21.52    -0.218 OA
ENDBRANCH  13  18
BRANCH  14  20
HETATM   20  O4  GAL I   2     266.598 247.328 192.961  1.00 17.56    -0.327 OA
BRANCH  20  21
HETATM   21  C1  NGA I   3     266.550 248.479 192.134  1.00 20.79     0.262 C 
HETATM   22  C2  NGA I   3     265.139 249.087 192.113  1.00 19.16     0.192 C 
HETATM   23  C3  NGA I   3     265.216 250.273 191.159  1.00 17.33     0.178 C 
HETATM   24  C4  NGA I   3     266.342 251.254 191.536  1.00 17.75     0.211 C 
HETATM   25  C5  NGA I   3     267.675 250.556 191.620  1.00 18.50     0.184 C 
HETATM   26  O4  NGA I   3     265.973 251.908 192.745  1.00 21.37    -0.218 OA
HETATM   27  O5  NGA I   3     267.517 249.455 192.537  1.00 18.52    -0.327 OA
BRANCH  22  28
HETATM   28  N2  NGA I   3     264.235 248.024 191.696  1.00 18.63    -0.232 NA
HETATM   29  C7  NGA I   3     263.058 247.799 192.256  1.00 18.81     0.252 C 
HETATM   30  C8  NGA I   3     262.412 246.499 191.778  1.00 18.13     0.100 C 
HETATM   31  O7  NGA I   3     262.571 248.550 193.158  1.00 18.42    -0.271 OA
ENDBRANCH  22  28
BRANCH  23  32
HETATM   32  O3  NGA I   3     263.962 250.957 191.248  1.00 16.00    -0.327 OA
BRANCH  32  33
HETATM   33  C1  GAL I   4     263.349 251.055 189.994  1.00 13.84     0.270 C 
HETATM   34  C2  GAL I   4     263.598 252.450 189.455  1.00 11.13     0.241 C 
HETATM   35  O2  GAL I   4     262.996 253.427 190.312  1.00 11.75    -0.215 OA
HETATM   36  C3  GAL I   4     263.014 252.557 188.064  1.00 10.40     0.220 C 
HETATM   37  O3  GAL I   4     263.355 253.818 187.525  1.00 10.96    -0.218 OA
HETATM   38  C4  GAL I   4     263.642 251.457 187.167  1.00 10.48     0.215 C 
HETATM   39  O4  GAL I   4     265.002 251.693 186.975  1.00 10.75    -0.218 OA
HETATM   40  C5  GAL I   4     263.447 250.104 187.837  1.00 11.91     0.184 C 
HETATM   41  O5  GAL I   4     264.029 250.086 189.157  1.00 12.52    -0.326 OA
BRANCH  40  42
HETATM   42  C6  GAL I   4     264.173 248.985 187.094  1.00 12.85     0.215 C 
HETATM   43  O6  GAL I   4     264.937 248.161 187.974  1.00 14.53    -0.218 OA
ENDBRANCH  40  42
ENDBRANCH  32  33
ENDBRANCH  23  32
BRANCH  25  44
HETATM   44  C6  NGA I   3     268.885 251.339 192.059  1.00 24.09     0.215 C 
HETATM   45  O6  NGA I   3     269.107 251.305 193.457  1.00 34.45    -0.218 OA
ENDBRANCH  25  44
ENDBRANCH  20  21
ENDBRANCH  14  20
BRANCH  15  46
HETATM   46  O3  GAL I   2     268.023 245.881 191.157  1.00 19.83    -0.324 OA
BRANCH  46  47
HETATM   47  C2  SIA I   5     269.111 245.777 190.243  1.00 19.70     0.271 C 
HETATM   48  C3  SIA I   5     270.036 244.616 190.461  1.00 21.90     0.103 C 
HETATM   49  C4  SIA I   5     271.271 244.649 189.586  1.00 21.98     0.182 C 
HETATM   50  O4  SIA I   5     272.246 243.717 190.067  1.00 23.39    -0.221 OA
HETATM   51  C5  SIA I   5     271.918 246.042 189.539  1.00 21.56     0.166 C 
HETATM   52  C6  SIA I   5     270.875 247.128 189.296  1.00 20.61     0.176 C 
HETATM   53  O6  SIA I   5     269.839 246.989 190.282  1.00 21.33    -0.325 OA
BRANCH  47  54
HETATM   54  C1  SIA I   5     268.481 245.649 188.855  1.00 22.23     0.240 C 
HETATM   55  O1A SIA I   5     268.772 244.582 188.215  1.00 17.82    -0.644 OA
HETATM   56  O1B SIA I   5     267.775 246.607 188.471  1.00 18.18    -0.644 OA
ENDBRANCH  47  54
BRANCH  51  57
HETATM   57  N5  SIA I   5     272.953 245.987 188.504  1.00 19.98    -0.235 NA
HETATM   58  C10 SIA I   5     274.217 246.385 188.695  1.00 19.62     0.252 C 
HETATM   59  O10 SIA I   5     274.607 246.849 189.801  1.00 24.06    -0.271 OA
HETATM   60  C11 SIA I   5     275.140 246.212 187.475  1.00 17.86     0.100 C 
ENDBRANCH  51  57
BRANCH  52  61
HETATM   61  C7  SIA I   5     271.398 248.573 189.417  1.00 20.48     0.214 C 
HETATM   62  O7  SIA I   5     270.891 249.209 190.621  1.00 18.83    -0.218 OA
BRANCH  61  63
HETATM   63  C8  SIA I   5     270.771 249.387 188.268  1.00 17.95     0.218 C 
HETATM   64  O8  SIA I   5     269.542 249.916 188.717  1.00 17.57    -0.218 OA
BRANCH  63  65
HETATM   65  C9  SIA I   5     270.463 248.425 187.115  1.00 20.07     0.218 C 
HETATM   66  O9  SIA I   5     269.368 248.837 186.354  1.00 23.55    -0.218 OA
ENDBRANCH  63  65
ENDBRANCH  61  63
ENDBRANCH  52  61
ENDBRANCH  46  47
ENDBRANCH  15  46
ENDBRANCH  10  11
ENDBRANCH   3  10
BRANCH   4  67
HETATM   67  C6  BGC I   1     266.390 241.910 196.799  1.00 22.08     0.214 C 
HETATM   68  O6  BGC I   1     266.977 242.341 197.998  1.00 27.97    -0.218 OA
ENDBRANCH   4  67
TORSDOF 18
ENDMDL
MODEL 7
REMARK VINA RESULT:      -5.9     15.599     19.642
REMARK  18 active torsions:
REMARK  status: ('A' for Active; 'I' for Inactive)
REMARK    1  A    between atoms: C4_3  and  O4_10 
REMARK    2  A    between atoms: C5_4  and  C6_5 
REMARK    3  A    between atoms: O4_10  and  C1_13 
REMARK    4  A    between atoms: C3_15  and  O3_20 
REMARK    5  A    between atoms: C4_16  and  O4_21 
REMARK    6  A    between atoms: C5_17  and  C6_18 
REMARK    7  A    between atoms: O3_20  and  C2_50 
REMARK    8  A    between atoms: O4_21  and  C1_24 
REMARK    9  A    between atoms: C2_25  and  N2_32 
REMARK   10  A    between atoms: C3_26  and  O3_33 
REMARK   11  A    between atoms: C5_28  and  C6_29 
REMARK       I    between atoms: C7_30  and  N2_32 
REMARK   12  A    between atoms: O3_33  and  C1_38 
REMARK   13  A    between atoms: C5_42  and  C6_43 
REMARK   14  A    between atoms: C1_49  and  C2_50 
REMARK   15  A    between atoms: C5_53  and  N5_60 
REMARK   16  A    between atoms: C6_54  and  C7_55 
REMARK   17  A    between atoms: C7_55  and  C8_56 
REMARK   18  A    between atoms: C8_56  and  C9_57 
REMARK       I    between atoms: C10_58  and  N5_60 
ROOT
HETATM    1  C2  BGC I   1     260.320 254.472 195.397  1.00 21.38     0.244 C 
HETATM    2  C3  BGC I   1     260.758 253.059 195.754  1.00 23.08     0.217 C 
HETATM    3  C4  BGC I   1     262.276 252.970 195.535  1.00 23.78     0.181 C 
HETATM    4  C5  BGC I   1     262.932 254.030 196.417  1.00 23.63     0.181 C 
HETATM    5  C1  BGC I   1     261.094 255.553 196.135  1.00 21.14     0.303 C 
HETATM    6  O1  BGC I   1     260.832 256.836 195.540  1.00 19.41    -0.187 OA
HETATM    7  O2  BGC I   1     258.925 254.529 195.653  1.00 30.88    -0.215 OA
HETATM    8  O3  BGC I   1     260.086 252.107 194.953  1.00 25.83    -0.218 OA
HETATM    9  O5  BGC I   1     262.484 255.308 195.957  1.00 21.93    -0.324 OA
ENDROOT
BRANCH   3  10
HETATM   10  O4  BGC I   1     262.684 251.720 196.080  1.00 24.88    -0.326 OA
BRANCH  10  11
HETATM   11  C1  GAL I   2     262.976 250.691 195.140  1.00 21.60     0.270 C 
HETATM   12  O5  GAL I   2     262.083 249.639 195.506  1.00 21.12    -0.326 OA
HETATM   13  C5  GAL I   2     262.167 248.471 194.668  1.00 19.51     0.180 C 
HETATM   14  C4  GAL I   2     263.533 247.852 194.946  1.00 19.17     0.177 C 
HETATM   15  C3  GAL I   2     264.605 248.874 194.494  1.00 19.53     0.183 C 
HETATM   16  C2  GAL I   2     264.394 250.176 195.301  1.00 22.15     0.238 C 
HETATM   17  O2  GAL I   2     265.295 251.163 194.803  1.00 22.38    -0.215 OA
BRANCH  13  18
HETATM   18  C6  GAL I   2     261.036 247.538 195.074  1.00 21.72     0.214 C 
HETATM   19  O6  GAL I   2     261.103 246.244 194.472  1.00 21.52    -0.218 OA
ENDBRANCH  13  18
BRANCH  14  20
HETATM   20  O4  GAL I   2     263.685 247.659 196.350  1.00 17.56    -0.327 OA
BRANCH  20  21
HETATM   21  C1  NGA I   3     263.990 246.361 196.833  1.00 20.79     0.262 C 
HETATM   22  C2  NGA I   3     262.770 245.724 197.516  1.00 19.16     0.192 C 
HETATM   23  C3  NGA I   3     263.246 244.369 198.026  1.00 17.33     0.178 C 
HETATM   24  C4  NGA I   3     263.887 243.518 196.914  1.00 17.75     0.211 C 
HETATM   25  C5  NGA I   3     265.015 244.254 196.239  1.00 18.50     0.184 C 
HETATM   26  O4  NGA I   3     262.859 243.119 196.014  1.00 21.37    -0.218 OA
HETATM   27  O5  NGA I   3     264.484 245.516 195.788  1.00 18.52    -0.327 OA
BRANCH  22  28
HETATM   28  N2  NGA I   3     262.344 246.652 198.554  1.00 18.63    -0.232 NA
HETATM   29  C7  NGA I   3     261.078 246.949 198.798  1.00 18.81     0.252 C 
HETATM   30  C8  NGA I   3     260.919 248.106 199.785  1.00 18.13     0.100 C 
HETATM   31  O7  NGA I   3     260.110 246.381 198.201  1.00 18.42    -0.271 OA
ENDBRANCH  22  28
BRANCH  23  32
HETATM   32  O3  NGA I   3     262.089 243.684 198.520  1.00 16.00    -0.327 OA
BRANCH  32  33
HETATM   33  C1  GAL I   4     262.301 243.204 199.816  1.00 13.84     0.270 C 
HETATM   34  C2  GAL I   4     263.057 241.893 199.717  1.00 11.13     0.241 C 
HETATM   35  O2  GAL I   4     262.272 240.921 199.015  1.00 11.75    -0.215 OA
HETATM   36  C3  GAL I   4     263.369 241.392 201.110  1.00 10.40     0.220 C 
HETATM   37  O3  GAL I   4     264.175 240.237 201.005  1.00 10.96    -0.218 OA
HETATM   38  C4  GAL I   4     264.173 242.481 201.868  1.00 10.48     0.215 C 
HETATM   39  O4  GAL I   4     265.428 242.660 201.291  1.00 10.75    -0.218 OA
HETATM   40  C5  GAL I   4     263.397 243.789 201.822  1.00 11.91     0.184 C 
HETATM   41  O5  GAL I   4     263.139 244.195 200.462  1.00 12.52    -0.326 OA
BRANCH  40  42
HETATM   42  C6  GAL I   4     264.193 244.951 202.413  1.00 12.85     0.215 C 
HETATM   43  O6  GAL I   4     264.211 246.087 201.550  1.00 14.53    -0.218 OA
ENDBRANCH  40  42
ENDBRANCH  32  33
ENDBRANCH  23  32
BRANCH  25  44
HETATM   44  C6  NGA I   3     265.711 243.612 195.067  1.00 24.09     0.215 C 
HETATM   45  O6  NGA I   3     266.067 242.260 195.288  1.00 34.45    -0.218 OA
ENDBRANCH  25  44
ENDBRANCH  20  21
ENDBRANCH  14  20
BRANCH  15  46
HETATM   46  O3  GAL I   2     265.867 248.367 194.896  1.00 19.83    -0.324 OA
BRANCH  46  47
HETATM   47  C2  SIA I   5     266.869 247.961 193.967  1.00 19.70     0.271 C 
HETATM   48  C3  SIA I   5     266.383 247.636 192.585  1.00 21.90     0.103 C 
HETATM   49  C4  SIA I   5     267.448 247.038 191.690  1.00 21.98     0.182 C 
HETATM   50  O4  SIA I   5     266.851 246.460 190.524  1.00 23.39    -0.221 OA
HETATM   51  C5  SIA I   5     268.268 245.952 192.402  1.00 21.56     0.166 C 
HETATM   52  C6  SIA I   5     268.714 246.412 193.786  1.00 20.61     0.176 C 
HETATM   53  O6  SIA I   5     267.553 246.849 194.512  1.00 21.33    -0.325 OA
BRANCH  47  54
HETATM   54  C1  SIA I   5     267.855 249.127 193.879  1.00 22.23     0.240 C 
HETATM   55  O1A SIA I   5     268.512 249.374 194.947  1.00 17.82    -0.644 OA
HETATM   56  O1B SIA I   5     267.898 249.741 192.790  1.00 18.18    -0.644 OA
ENDBRANCH  47  54
BRANCH  51  57
HETATM   57  N5  SIA I   5     269.383 245.620 191.512  1.00 19.98    -0.235 NA
HETATM   58  C10 SIA I   5     269.448 244.495 190.788  1.00 19.62     0.252 C 
HETATM   59  O10 SIA I   5     268.537 243.625 190.831  1.00 24.06    -0.271 OA
HETATM   60  C11 SIA I   5     270.701 244.369 189.903  1.00 17.86     0.100 C 
ENDBRANCH  51  57
BRANCH  52  61
HETATM   61  C7  SIA I   5     269.383 245.326 194.651  1.00 20.48     0.214 C 
HETATM   62  O7  SIA I   5     268.699 245.182 195.925  1.00 18.83    -0.218 OA
BRANCH  61  63
HETATM   63  C8  SIA I   5     270.786 245.840 195.032  1.00 17.95     0.218 C 
HETATM   64  O8  SIA I   5     270.898 247.181 194.608  1.00 17.57    -0.218 OA
BRANCH  63  65
HETATM   65  C9  SIA I   5     271.820 245.022 194.250  1.00 20.07     0.218 C 
HETATM   66  O9  SIA I   5     272.364 245.735 193.180  1.00 23.55    -0.218 OA
ENDBRANCH  63  65
ENDBRANCH  61  63
ENDBRANCH  52  61
ENDBRANCH  46  47
ENDBRANCH  15  46
ENDBRANCH  10  11
ENDBRANCH   3  10
BRANCH   4  67
HETATM   67  C6  BGC I   1     264.458 253.970 196.365  1.00 22.08     0.214 C 
HETATM   68  O6  BGC I   1     265.053 255.234 196.484  1.00 27.97    -0.218 OA
ENDBRANCH   4  67
TORSDOF 18
ENDMDL
MODEL 8
REMARK VINA RESULT:      -5.8     28.207     31.598
REMARK  18 active torsions:
REMARK  status: ('A' for Active; 'I' for Inactive)
REMARK    1  A    between atoms: C4_3  and  O4_10 
REMARK    2  A    between atoms: C5_4  and  C6_5 
REMARK    3  A    between atoms: O4_10  and  C1_13 
REMARK    4  A    between atoms: C3_15  and  O3_20 
REMARK    5  A    between atoms: C4_16  and  O4_21 
REMARK    6  A    between atoms: C5_17  and  C6_18 
REMARK    7  A    between atoms: O3_20  and  C2_50 
REMARK    8  A    between atoms: O4_21  and  C1_24 
REMARK    9  A    between atoms: C2_25  and  N2_32 
REMARK   10  A    between atoms: C3_26  and  O3_33 
REMARK   11  A    between atoms: C5_28  and  C6_29 
REMARK       I    between atoms: C7_30  and  N2_32 
REMARK   12  A    between atoms: O3_33  and  C1_38 
REMARK   13  A    between atoms: C5_42  and  C6_43 
REMARK   14  A    between atoms: C1_49  and  C2_50 
REMARK   15  A    between atoms: C5_53  and  N5_60 
REMARK   16  A    between atoms: C6_54  and  C7_55 
REMARK   17  A    between atoms: C7_55  and  C8_56 
REMARK   18  A    between atoms: C8_56  and  C9_57 
REMARK       I    between atoms: C10_58  and  N5_60 
ROOT
HETATM    1  C2  BGC I   1     255.874 269.343 207.103  1.00 21.38     0.244 C 
HETATM    2  C3  BGC I   1     256.550 269.401 208.464  1.00 23.08     0.217 C 
HETATM    3  C4  BGC I   1     255.461 269.657 209.518  1.00 23.78     0.181 C 
HETATM    4  C5  BGC I   1     254.443 268.523 209.414  1.00 23.63     0.181 C 
HETATM    5  C1  BGC I   1     254.730 268.342 207.034  1.00 21.14     0.303 C 
HETATM    6  O1  BGC I   1     253.968 268.552 205.832  1.00 19.41    -0.187 OA
HETATM    7  O2  BGC I   1     256.901 269.061 206.164  1.00 30.88    -0.215 OA
HETATM    8  O3  BGC I   1     257.523 270.426 208.500  1.00 25.83    -0.218 OA
HETATM    9  O5  BGC I   1     253.845 268.601 208.118  1.00 21.93    -0.324 OA
ENDROOT
BRANCH   3  10
HETATM   10  O4  BGC I   1     256.086 269.489 210.785  1.00 24.88    -0.326 OA
BRANCH  10  11
HETATM   11  C1  GAL I   2     256.116 270.637 211.628  1.00 21.60     0.270 C 
HETATM   12  O5  GAL I   2     255.216 271.543 210.991  1.00 21.12    -0.326 OA
HETATM   13  C5  GAL I   2     255.048 272.795 211.682  1.00 19.51     0.180 C 
HETATM   14  C4  GAL I   2     256.384 273.523 211.562  1.00 19.17     0.177 C 
HETATM   15  C3  GAL I   2     257.441 272.674 212.309  1.00 19.53     0.183 C 
HETATM   16  C2  GAL I   2     257.491 271.279 211.644  1.00 22.15     0.238 C 
HETATM   17  O2  GAL I   2     258.370 270.451 212.403  1.00 22.38    -0.215 OA
BRANCH  13  18
HETATM   18  C6  GAL I   2     253.933 273.556 210.980  1.00 21.72     0.214 C 
HETATM   19  O6  GAL I   2     253.005 272.721 210.284  1.00 21.52    -0.218 OA
ENDBRANCH  13  18
BRANCH  14  20
HETATM   20  O4  GAL I   2     256.767 273.581 210.190  1.00 17.56    -0.327 OA
BRANCH  20  21
HETATM   21  C1  NGA I   3     257.051 274.845 209.613  1.00 20.79     0.262 C 
HETATM   22  C2  NGA I   3     255.921 275.290 208.672  1.00 19.16     0.192 C 
HETATM   23  C3  NGA I   3     256.373 276.624 208.089  1.00 17.33     0.178 C 
HETATM   24  C4  NGA I   3     256.750 277.642 209.181  1.00 17.75     0.211 C 
HETATM   25  C5  NGA I   3     257.799 277.089 210.110  1.00 18.50     0.184 C 
HETATM   26  O4  NGA I   3     255.557 278.035 209.851  1.00 21.37    -0.218 OA
HETATM   27  O5  NGA I   3     257.296 275.836 210.617  1.00 18.52    -0.327 OA
BRANCH  22  28
HETATM   28  N2  NGA I   3     255.748 274.223 207.696  1.00 18.63    -0.232 NA
HETATM   29  C7  NGA I   3     254.573 273.850 207.217  1.00 18.81     0.252 C 
HETATM   30  C8  NGA I   3     254.651 272.573 206.380  1.00 18.13     0.100 C 
HETATM   31  O7  NGA I   3     253.491 274.453 207.502  1.00 18.42    -0.271 OA
ENDBRANCH  22  28
BRANCH  23  32
HETATM   32  O3  NGA I   3     255.269 277.142 207.339  1.00 16.00    -0.327 OA
BRANCH  32  33
HETATM   33  C1  GAL I   4     255.594 277.270 205.984  1.00 13.84     0.270 C 
HETATM   34  C2  GAL I   4     255.678 278.748 205.657  1.00 11.13     0.241 C 
HETATM   35  O2  GAL I   4     254.406 279.374 205.861  1.00 11.75    -0.215 OA
HETATM   36  C3  GAL I   4     256.107 278.915 204.216  1.00 10.40     0.220 C 
HETATM   37  O3  GAL I   4     256.298 280.291 203.957  1.00 10.96    -0.218 OA
HETATM   38  C4  GAL I   4     257.460 278.186 204.005  1.00 10.48     0.215 C 
HETATM   39  O4  GAL I   4     258.475 278.810 204.728  1.00 10.75    -0.218 OA
HETATM   40  C5  GAL I   4     257.319 276.741 204.464  1.00 11.91     0.184 C 
HETATM   41  O5  GAL I   4     256.906 276.670 205.844  1.00 12.52    -0.326 OA
BRANCH  40  42
HETATM   42  C6  GAL I   4     258.652 275.996 204.434  1.00 12.85     0.215 C 
HETATM   43  O6  GAL I   4     259.206 275.829 205.739  1.00 14.53    -0.218 OA
ENDBRANCH  40  42
ENDBRANCH  32  33
ENDBRANCH  23  32
BRANCH  25  44
HETATM   44  C6  NGA I   3     258.235 277.912 211.295  1.00 24.09     0.215 C 
HETATM   45  O6  NGA I   3     258.050 277.260 212.538  1.00 34.45    -0.218 OA
ENDBRANCH  25  44
ENDBRANCH  20  21
ENDBRANCH  14  20
BRANCH  15  46
HETATM   46  O3  GAL I   2     258.707 273.267 212.066  1.00 19.83    -0.324 OA
BRANCH  46  47
HETATM   47  C2  SIA I   5     259.564 273.719 213.111  1.00 19.70     0.271 C 
HETATM   48  C3  SIA I   5     258.879 274.152 214.373  1.00 21.90     0.103 C 
HETATM   49  C4  SIA I   5     259.809 274.792 215.382  1.00 21.98     0.182 C 
HETATM   50  O4  SIA I   5     259.056 275.466 216.396  1.00 23.39    -0.221 OA
HETATM   51  C5  SIA I   5     260.764 275.808 214.735  1.00 21.56     0.166 C 
HETATM   52  C6  SIA I   5     261.406 275.239 213.474  1.00 20.61     0.176 C 
HETATM   53  O6  SIA I   5     260.359 274.774 212.605  1.00 21.33    -0.325 OA
BRANCH  47  54
HETATM   54  C1  SIA I   5     260.487 272.543 213.433  1.00 22.23     0.240 C 
HETATM   55  O1A SIA I   5     260.367 272.055 214.608  1.00 17.82    -0.644 OA
HETATM   56  O1B SIA I   5     261.286 272.196 212.535  1.00 18.18    -0.644 OA
ENDBRANCH  47  54
BRANCH  51  57
HETATM   57  N5  SIA I   5     261.736 276.180 215.765  1.00 19.98    -0.235 NA
HETATM   58  C10 SIA I   5     261.860 277.420 216.258  1.00 19.62     0.252 C 
HETATM   59  O10 SIA I   5     261.136 278.370 215.854  1.00 24.06    -0.271 OA
HETATM   60  C11 SIA I   5     262.931 277.576 217.352  1.00 17.86     0.100 C 
ENDBRANCH  51  57
BRANCH  52  61
HETATM   61  C7  SIA I   5     262.235 276.246 212.653  1.00 20.48     0.214 C 
HETATM   62  O7  SIA I   5     261.612 277.559 212.658  1.00 18.83    -0.218 OA
BRANCH  61  63
HETATM   63  C8  SIA I   5     262.168 275.802 211.178  1.00 17.95     0.218 C 
HETATM   64  O8  SIA I   5     263.479 275.508 210.743  1.00 17.57    -0.218 OA
BRANCH  63  65
HETATM   65  C9  SIA I   5     261.664 276.987 210.347  1.00 20.07     0.218 C 
HETATM   66  O9  SIA I   5     260.846 276.587 209.289  1.00 23.55    -0.218 OA
ENDBRANCH  63  65
ENDBRANCH  61  63
ENDBRANCH  52  61
ENDBRANCH  46  47
ENDBRANCH  15  46
ENDBRANCH  10  11
ENDBRANCH   3  10
BRANCH   4  67
HETATM   67  C6  BGC I   1     253.360 268.610 210.487  1.00 22.08     0.214 C 
HETATM   68  O6  BGC I   1     252.358 269.539 210.170  1.00 27.97    -0.218 OA
ENDBRANCH   4  67
TORSDOF 18
ENDMDL
MODEL 9
REMARK VINA RESULT:      -5.8     14.630     18.689
REMARK  18 active torsions:
REMARK  status: ('A' for Active; 'I' for Inactive)
REMARK    1  A    between atoms: C4_3  and  O4_10 
REMARK    2  A    between atoms: C5_4  and  C6_5 
REMARK    3  A    between atoms: O4_10  and  C1_13 
REMARK    4  A    between atoms: C3_15  and  O3_20 
REMARK    5  A    between atoms: C4_16  and  O4_21 
REMARK    6  A    between atoms: C5_17  and  C6_18 
REMARK    7  A    between atoms: O3_20  and  C2_50 
REMARK    8  A    between atoms: O4_21  and  C1_24 
REMARK    9  A    between atoms: C2_25  and  N2_32 
REMARK   10  A    between atoms: C3_26  and  O3_33 
REMARK   11  A    between atoms: C5_28  and  C6_29 
REMARK       I    between atoms: C7_30  and  N2_32 
REMARK   12  A    between atoms: O3_33  and  C1_38 
REMARK   13  A    between atoms: C5_42  and  C6_43 
REMARK   14  A    between atoms: C1_49  and  C2_50 
REMARK   15  A    between atoms: C5_53  and  N5_60 
REMARK   16  A    between atoms: C6_54  and  C7_55 
REMARK   17  A    between atoms: C7_55  and  C8_56 
REMARK   18  A    between atoms: C8_56  and  C9_57 
REMARK       I    between atoms: C10_58  and  N5_60 
ROOT
HETATM    1  C2  BGC I   1     264.206 243.997 197.332  1.00 21.38     0.244 C 
HETATM    2  C3  BGC I   1     263.433 245.307 197.379  1.00 23.08     0.217 C 
HETATM    3  C4  BGC I   1     262.625 245.420 196.076  1.00 23.78     0.181 C 
HETATM    4  C5  BGC I   1     261.712 244.200 195.991  1.00 23.63     0.181 C 
HETATM    5  C1  BGC I   1     263.330 242.783 197.065  1.00 21.14     0.303 C 
HETATM    6  O1  BGC I   1     264.152 241.645 196.750  1.00 19.41    -0.187 OA
HETATM    7  O2  BGC I   1     264.901 243.906 198.567  1.00 30.88    -0.215 OA
HETATM    8  O3  BGC I   1     264.312 246.406 197.513  1.00 25.83    -0.218 OA
HETATM    9  O5  BGC I   1     262.548 243.043 195.905  1.00 21.93    -0.324 OA
ENDROOT
BRANCH   3  10
HETATM   10  O4  BGC I   1     261.755 246.533 196.243  1.00 24.88    -0.326 OA
BRANCH  10  11
HETATM   11  C1  GAL I   2     261.859 247.564 195.266  1.00 21.60     0.270 C 
HETATM   12  O5  GAL I   2     262.193 246.860 194.070  1.00 21.12    -0.326 OA
HETATM   13  C5  GAL I   2     262.327 247.697 192.907  1.00 19.51     0.180 C 
HETATM   14  C4  GAL I   2     263.572 248.548 193.143  1.00 19.17     0.177 C 
HETATM   15  C3  GAL I   2     263.294 249.441 194.377  1.00 19.53     0.183 C 
HETATM   16  C2  GAL I   2     262.999 248.516 195.580  1.00 22.15     0.238 C 
HETATM   17  O2  GAL I   2     262.620 249.329 196.688  1.00 22.38    -0.215 OA
BRANCH  13  18
HETATM   18  C6  GAL I   2     262.496 246.781 191.704  1.00 21.72     0.214 C 
HETATM   19  O6  GAL I   2     263.019 245.490 192.022  1.00 21.52    -0.218 OA
ENDBRANCH  13  18
BRANCH  14  20
HETATM   20  O4  GAL I   2     264.669 247.696 193.464  1.00 17.56    -0.327 OA
BRANCH  20  21
HETATM   21  C1  NGA I   3     265.825 247.731 192.643  1.00 20.79     0.262 C 
HETATM   22  C2  NGA I   3     266.827 246.641 193.052  1.00 19.16     0.192 C 
HETATM   23  C3  NGA I   3     268.029 246.821 192.132  1.00 17.33     0.178 C 
HETATM   24  C4  NGA I   3     267.632 246.814 190.644  1.00 17.75     0.211 C 
HETATM   25  C5  NGA I   3     266.581 247.853 190.350  1.00 18.50     0.184 C 
HETATM   26  O4  NGA I   3     267.228 245.493 190.300  1.00 21.37    -0.218 OA
HETATM   27  O5  NGA I   3     265.486 247.613 191.257  1.00 18.52    -0.327 OA
BRANCH  22  28
HETATM   28  N2  NGA I   3     267.106 246.843 194.467  1.00 18.63    -0.232 NA
HETATM   29  C7  NGA I   3     267.234 245.856 195.338  1.00 18.81     0.252 C 
HETATM   30  C8  NGA I   3     267.306 246.345 196.785  1.00 18.13     0.100 C 
HETATM   31  O7  NGA I   3     267.213 244.631 194.999  1.00 18.42    -0.271 OA
ENDBRANCH  22  28
BRANCH  23  32
HETATM   32  O3  NGA I   3     268.907 245.717 192.378  1.00 16.00    -0.327 OA
BRANCH  32  33
HETATM   33  C1  GAL I   4     270.214 246.011 191.975  1.00 13.84     0.270 C 
HETATM   34  C2  GAL I   4     271.153 245.636 193.105  1.00 11.13     0.241 C 
HETATM   35  O2  GAL I   4     270.867 246.423 194.267  1.00 11.75    -0.215 OA
HETATM   36  C3  GAL I   4     272.580 245.870 192.664  1.00 10.40     0.220 C 
HETATM   37  O3  GAL I   4     273.449 245.405 193.677  1.00 10.96    -0.218 OA
HETATM   38  C4  GAL I   4     272.850 245.049 191.375  1.00 10.48     0.215 C 
HETATM   39  O4  GAL I   4     272.805 243.682 191.641  1.00 10.75    -0.218 OA
HETATM   40  C5  GAL I   4     271.797 245.404 190.335  1.00 11.91     0.184 C 
HETATM   41  O5  GAL I   4     270.467 245.155 190.833  1.00 12.52    -0.326 OA
BRANCH  40  42
HETATM   42  C6  GAL I   4     271.900 244.524 189.090  1.00 12.85     0.215 C 
HETATM   43  O6  GAL I   4     270.717 243.755 188.874  1.00 14.53    -0.218 OA
ENDBRANCH  40  42
ENDBRANCH  32  33
ENDBRANCH  23  32
BRANCH  25  44
HETATM   44  C6  NGA I   3     266.005 247.940 188.960  1.00 24.09     0.215 C 
HETATM   45  O6  NGA I   3     264.632 248.285 188.935  1.00 34.45    -0.218 OA
ENDBRANCH  25  44
ENDBRANCH  20  21
ENDBRANCH  14  20
BRANCH  15  46
HETATM   46  O3  GAL I   2     264.503 250.114 194.690  1.00 19.83    -0.324 OA
BRANCH  46  47
HETATM   47  C2  SIA I   5     264.630 251.533 194.655  1.00 19.70     0.271 C 
HETATM   48  C3  SIA I   5     263.377 252.291 194.328  1.00 21.90     0.103 C 
HETATM   49  C4  SIA I   5     263.599 253.775 194.123  1.00 21.98     0.182 C 
HETATM   50  O4  SIA I   5     262.453 254.368 193.503  1.00 23.39    -0.221 OA
HETATM   51  C5  SIA I   5     264.827 254.067 193.247  1.00 21.56     0.166 C 
HETATM   52  C6  SIA I   5     266.033 253.248 193.694  1.00 20.61     0.176 C 
HETATM   53  O6  SIA I   5     265.650 251.864 193.733  1.00 21.33    -0.325 OA
BRANCH  47  54
HETATM   54  C1  SIA I   5     265.102 251.946 196.051  1.00 22.23     0.240 C 
HETATM   55  O1A SIA I   5     264.250 252.590 196.751  1.00 17.82    -0.644 OA
HETATM   56  O1B SIA I   5     266.277 251.644 196.355  1.00 18.18    -0.644 OA
ENDBRANCH  47  54
BRANCH  51  57
HETATM   57  N5  SIA I   5     265.050 255.514 193.312  1.00 19.98    -0.235 NA
HETATM   58  C10 SIA I   5     265.093 256.308 192.234  1.00 19.62     0.252 C 
HETATM   59  O10 SIA I   5     264.947 255.853 191.068  1.00 24.06    -0.271 OA
HETATM   60  C11 SIA I   5     265.314 257.800 192.541  1.00 17.86     0.100 C 
ENDBRANCH  51  57
BRANCH  52  61
HETATM   61  C7  SIA I   5     267.259 253.333 192.765  1.00 20.48     0.214 C 
HETATM   62  O7  SIA I   5     266.884 253.074 191.385  1.00 18.83    -0.218 OA
BRANCH  61  63
HETATM   63  C8  SIA I   5     268.194 252.161 193.128  1.00 17.95     0.218 C 
HETATM   64  O8  SIA I   5     269.229 252.657 193.948  1.00 17.57    -0.218 OA
BRANCH  63  65
HETATM   65  C9  SIA I   5     268.838 251.648 191.835  1.00 20.07     0.218 C 
HETATM   66  O9  SIA I   5     270.187 251.992 191.738  1.00 23.55    -0.218 OA
ENDBRANCH  63  65
ENDBRANCH  61  63
ENDBRANCH  52  61
ENDBRANCH  46  47
ENDBRANCH  15  46
ENDBRANCH  10  11
ENDBRANCH   3  10
BRANCH   4  67
HETATM   67  C6  BGC I   1     260.778 244.252 194.783  1.00 22.08     0.214 C 
HETATM   68  O6  BGC I   1     259.429 244.369 195.147  1.00 27.97    -0.218 OA
ENDBRANCH   4  67
TORSDOF 18
ENDMDL
