MODEL 1
REMARK VINA RESULT:      -6.9      0.000      0.000
REMARK  15 active torsions:
REMARK  status: ('A' for Active; 'I' for Inactive)
REMARK    1  A    between atoms: C3_3  and  O3_8 
REMARK    2  A    between atoms: C4_4  and  O4_9 
REMARK    3  A    between atoms: C5_5  and  C6_6 
REMARK    4  A    between atoms: O3_8  and  C2_38 
REMARK    5  A    between atoms: O4_9  and  C1_12 
REMARK    6  A    between atoms: C2_13  and  N2_20 
REMARK    7  A    between atoms: C3_14  and  O3_21 
REMARK    8  A    between atoms: C5_16  and  C6_17 
REMARK       I    between atoms: C7_18  and  N2_20 
REMARK    9  A    between atoms: O3_21  and  C1_26 
REMARK   10  A    between atoms: C5_30  and  C6_31 
REMARK   11  A    between atoms: C1_37  and  C2_38 
REMARK   12  A    between atoms: C5_41  and  N5_48 
REMARK   13  A    between atoms: C6_42  and  C7_43 
REMARK   14  A    between atoms: C7_43  and  C8_44 
REMARK   15  A    between atoms: C8_44  and  C9_45 
REMARK       I    between atoms: C10_46  and  N5_48 
ROOT
HETATM    1  C1  GAL A   1     278.125 252.467 190.767  0.50 30.86     0.178 C 
HETATM    2  C2  GAL A   1     277.179 253.047 191.819  0.50 31.03     0.211 C 
HETATM    3  C3  GAL A   1     277.472 254.500 192.135  0.50 28.77     0.181 C 
HETATM    4  C4  GAL A   1     278.960 254.716 192.398  0.50 28.47     0.177 C 
HETATM    5  C5  GAL A   1     279.832 254.011 191.394  0.50 29.35     0.178 C 
HETATM    6  O2  GAL A   1     275.853 252.826 191.373  0.50 30.41    -0.218 OA
HETATM    7  O5  GAL A   1     279.466 252.645 191.224  0.50 30.35    -0.349 OA
ENDROOT
BRANCH   3   8
HETATM    8  O3  GAL A   1     276.827 254.895 193.331  0.50 28.34    -0.324 OA
BRANCH   8   9
HETATM    9  C2  SIA A   4     275.605 255.600 193.314  0.50 28.62     0.271 C 
HETATM   10  O6  SIA A   4     275.300 256.240 192.093  0.50 31.74    -0.325 OA
HETATM   11  C6  SIA A   4     274.089 257.009 192.043  0.50 34.04     0.176 C 
HETATM   12  C5  SIA A   4     272.867 256.211 192.459  0.50 33.06     0.166 C 
HETATM   13  C4  SIA A   4     273.164 255.599 193.829  0.50 31.88     0.182 C 
HETATM   14  C3  SIA A   4     274.409 254.719 193.692  0.50 29.71     0.103 C 
HETATM   15  O4  SIA A   4     272.068 254.835 194.264  0.50 38.09    -0.221 OA
BRANCH   9  16
HETATM   16  C1  SIA A   4     275.718 256.641 194.430  0.50 27.73     0.240 C 
HETATM   17  O1A SIA A   4     275.902 256.253 195.600  0.50 31.28    -0.644 OA
HETATM   18  O1B SIA A   4     275.595 257.825 194.050  0.50 17.68    -0.644 OA
ENDBRANCH   9  16
BRANCH  11  19
HETATM   19  C7  SIA A   4     273.975 257.565 190.624  0.50 33.71     0.214 C 
HETATM   20  O7  SIA A   4     274.725 256.777 189.704  0.50 32.14    -0.218 OA
BRANCH  19  21
HETATM   21  C8  SIA A   4     274.553 258.984 190.603  0.50 34.22     0.218 C 
HETATM   22  O8  SIA A   4     274.159 259.726 191.738  0.50 31.83    -0.218 OA
BRANCH  21  23
HETATM   23  C9  SIA A   4     274.087 259.654 189.315  0.50 33.50     0.218 C 
HETATM   24  O9  SIA A   4     275.225 260.002 188.570  0.50 28.00    -0.218 OA
ENDBRANCH  21  23
ENDBRANCH  19  21
ENDBRANCH  11  19
BRANCH  12  25
HETATM   25  N5  SIA A   4     271.626 256.949 192.480  0.50 34.22    -0.235 NA
HETATM   26  C10 SIA A   4     270.587 256.705 191.680  0.50 33.32     0.252 C 
HETATM   27  C11 SIA A   4     269.404 257.680 191.903  0.50 19.88     0.100 C 
HETATM   28  O10 SIA A   4     270.718 255.771 190.854  0.50 29.43    -0.271 OA
ENDBRANCH  12  25
ENDBRANCH   8   9
ENDBRANCH   3   8
BRANCH   5  29
HETATM   29  C6  GAL A   1     281.277 254.048 191.905  0.50 30.53     0.214 C 
HETATM   30  O6  GAL A   1     281.870 255.286 191.587  0.50 33.07    -0.218 OA
ENDBRANCH   5  29
BRANCH   4  31
HETATM   31  O4  GAL A   1     279.313 254.122 193.635  0.50 31.21    -0.327 OA
BRANCH  31  32
HETATM   32  C1  NGA A   2     279.542 255.041 194.694  0.50 28.26     0.262 C 
HETATM   33  C2  NGA A   2     279.546 254.147 195.943  0.50 24.34     0.192 C 
HETATM   34  C3  NGA A   2     279.878 254.978 197.136  0.50 23.13     0.178 C 
HETATM   35  C4  NGA A   2     281.178 255.775 196.950  0.50 23.45     0.211 C 
HETATM   36  C5  NGA A   2     281.008 256.599 195.695  0.50 23.37     0.184 C 
HETATM   37  O4  NGA A   2     282.244 254.862 196.859  0.50 26.44    -0.218 OA
HETATM   38  O5  NGA A   2     280.782 255.740 194.580  0.50 27.92    -0.327 OA
BRANCH  33  39
HETATM   39  N2  NGA A   2     278.300 253.415 195.932  0.50 23.90    -0.232 NA
HETATM   40  C7  NGA A   2     278.316 252.073 195.940  0.50 22.89     0.252 C 
HETATM   41  C8  NGA A   2     276.929 251.430 195.846  0.50 21.65     0.100 C 
HETATM   42  O7  NGA A   2     279.430 251.510 195.999  0.50 27.34    -0.271 OA
ENDBRANCH  33  39
BRANCH  34  43
HETATM   43  O3  NGA A   2     280.071 254.132 198.269  0.50 19.58    -0.327 OA
BRANCH  43  44
HETATM   44  C1  GAL A   3     279.228 254.613 199.310  0.50 14.41     0.270 C 
HETATM   45  C2  GAL A   3     279.667 253.970 200.608  0.50 11.27     0.241 C 
HETATM   46  O2  GAL A   3     279.597 252.565 200.474  0.50 11.99    -0.215 OA
HETATM   47  C3  GAL A   3     278.787 254.447 201.752  0.50  9.34     0.220 C 
HETATM   48  O3  GAL A   3     279.308 253.976 202.975  0.50 11.52    -0.218 OA
HETATM   49  C4  GAL A   3     278.610 255.962 201.717  0.50 10.13     0.215 C 
HETATM   50  O4  GAL A   3     279.843 256.545 202.042  0.50  7.87    -0.218 OA
HETATM   51  C5  GAL A   3     278.276 256.503 200.323  0.50 13.15     0.184 C 
HETATM   52  O5  GAL A   3     279.274 256.047 199.371  0.50 13.62    -0.326 OA
BRANCH  51  53
HETATM   53  C6  GAL A   3     278.274 258.024 200.227  0.50 18.07     0.215 C 
HETATM   54  O6  GAL A   3     278.151 258.467 198.891  0.50 13.12    -0.218 OA
ENDBRANCH  51  53
ENDBRANCH  43  44
ENDBRANCH  34  43
BRANCH  36  55
HETATM   55  C6  NGA A   2     282.045 257.667 195.461  0.50 20.58     0.215 C 
HETATM   56  O6  NGA A   2     282.770 257.322 194.303  0.50 30.49    -0.218 OA
ENDBRANCH  36  55
ENDBRANCH  31  32
ENDBRANCH   4  31
TORSDOF 15
ENDMDL
MODEL 2
REMARK VINA RESULT:      -6.5      3.432     11.027
REMARK  15 active torsions:
REMARK  status: ('A' for Active; 'I' for Inactive)
REMARK    1  A    between atoms: C3_3  and  O3_8 
REMARK    2  A    between atoms: C4_4  and  O4_9 
REMARK    3  A    between atoms: C5_5  and  C6_6 
REMARK    4  A    between atoms: O3_8  and  C2_38 
REMARK    5  A    between atoms: O4_9  and  C1_12 
REMARK    6  A    between atoms: C2_13  and  N2_20 
REMARK    7  A    between atoms: C3_14  and  O3_21 
REMARK    8  A    between atoms: C5_16  and  C6_17 
REMARK       I    between atoms: C7_18  and  N2_20 
REMARK    9  A    between atoms: O3_21  and  C1_26 
REMARK   10  A    between atoms: C5_30  and  C6_31 
REMARK   11  A    between atoms: C1_37  and  C2_38 
REMARK   12  A    between atoms: C5_41  and  N5_48 
REMARK   13  A    between atoms: C6_42  and  C7_43 
REMARK   14  A    between atoms: C7_43  and  C8_44 
REMARK   15  A    between atoms: C8_44  and  C9_45 
REMARK       I    between atoms: C10_46  and  N5_48 
ROOT
HETATM    1  C1  GAL A   1     274.346 259.702 188.718  0.50 30.86     0.178 C 
HETATM    2  C2  GAL A   1     274.326 259.402 190.218  0.50 31.03     0.211 C 
HETATM    3  C3  GAL A   1     273.925 257.973 190.526  0.50 28.77     0.181 C 
HETATM    4  C4  GAL A   1     272.666 257.578 189.759  0.50 28.47     0.177 C 
HETATM    5  C5  GAL A   1     272.704 258.018 188.320  0.50 29.35     0.178 C 
HETATM    6  O2  GAL A   1     275.593 259.755 190.743  0.50 30.41    -0.218 OA
HETATM    7  O5  GAL A   1     273.059 259.389 188.182  0.50 30.35    -0.349 OA
ENDROOT
BRANCH   3   8
HETATM    8  O3  GAL A   1     273.584 257.830 191.891  0.50 28.34    -0.324 OA
BRANCH   8   9
HETATM    9  C2  SIA A   4     274.243 256.902 192.726  0.50 28.62     0.271 C 
HETATM   10  O6  SIA A   4     275.148 256.043 192.066  0.50 31.74    -0.325 OA
HETATM   11  C6  SIA A   4     275.808 255.051 192.867  0.50 34.04     0.176 C 
HETATM   12  C5  SIA A   4     276.529 255.643 194.063  0.50 33.06     0.166 C 
HETATM   13  C4  SIA A   4     275.518 256.496 194.831  0.50 31.88     0.182 C 
HETATM   14  C3  SIA A   4     274.993 257.576 193.880  0.50 29.71     0.103 C 
HETATM   15  O4  SIA A   4     276.133 257.084 195.949  0.50 38.09    -0.221 OA
BRANCH   9  16
HETATM   16  C1  SIA A   4     273.131 256.079 193.381  0.50 27.73     0.240 C 
HETATM   17  O1A SIA A   4     272.394 256.626 194.224  0.50 31.28    -0.644 OA
HETATM   18  O1B SIA A   4     273.077 254.888 193.006  0.50 17.68    -0.644 OA
ENDBRANCH   9  16
BRANCH  11  19
HETATM   19  C7  SIA A   4     276.745 254.281 191.936  0.50 33.71     0.214 C 
HETATM   20  O7  SIA A   4     277.885 255.064 191.596  0.50 32.14    -0.218 OA
BRANCH  19  21
HETATM   21  C8  SIA A   4     275.996 253.961 190.637  0.50 34.22     0.218 C 
HETATM   22  O8  SIA A   4     274.954 253.031 190.850  0.50 31.83    -0.218 OA
BRANCH  21  23
HETATM   23  C9  SIA A   4     277.014 253.431 189.634  0.50 33.50     0.218 C 
HETATM   24  O9  SIA A   4     276.652 253.897 188.361  0.50 28.00    -0.218 OA
ENDBRANCH  21  23
ENDBRANCH  19  21
ENDBRANCH  11  19
BRANCH  12  25
HETATM   25  N5  SIA A   4     277.166 254.686 194.936  0.50 34.22    -0.235 NA
HETATM   26  C10 SIA A   4     278.473 254.657 195.201  0.50 33.32     0.252 C 
HETATM   27  C11 SIA A   4     278.879 253.496 196.144  0.50 19.88     0.100 C 
HETATM   28  O10 SIA A   4     279.182 255.525 194.639  0.50 29.43    -0.271 OA
ENDBRANCH  12  25
ENDBRANCH   8   9
ENDBRANCH   3   8
BRANCH   5  29
HETATM   29  C6  GAL A   1     271.303 257.836 187.726  0.50 30.53     0.214 C 
HETATM   30  O6  GAL A   1     271.382 257.133 186.507  0.50 33.07    -0.218 OA
ENDBRANCH   5  29
BRANCH   4  31
HETATM   31  O4  GAL A   1     271.549 258.265 190.297  0.50 31.21    -0.327 OA
BRANCH  31  32
HETATM   32  C1  NGA A   2     270.729 257.489 191.159  0.50 28.26     0.262 C 
HETATM   33  C2  NGA A   2     269.346 258.140 191.012  0.50 24.34     0.192 C 
HETATM   34  C3  NGA A   2     268.351 257.353 191.799  0.50 23.13     0.178 C 
HETATM   35  C4  NGA A   2     268.367 255.862 191.434  0.50 23.45     0.211 C 
HETATM   36  C5  NGA A   2     269.783 255.377 191.637  0.50 23.37     0.184 C 
HETATM   37  O4  NGA A   2     267.934 255.730 190.102  0.50 26.44    -0.218 OA
HETATM   38  O5  NGA A   2     270.669 256.109 190.794  0.50 27.92    -0.327 OA
BRANCH  33  39
HETATM   39  N2  NGA A   2     269.515 259.543 191.314  0.50 23.90    -0.232 NA
HETATM   40  C7  NGA A   2     269.103 260.468 190.432  0.50 22.89     0.252 C 
HETATM   41  C8  NGA A   2     269.417 261.909 190.845  0.50 21.65     0.100 C 
HETATM   42  O7  NGA A   2     268.544 260.063 189.391  0.50 27.34    -0.271 OA
ENDBRANCH  33  39
BRANCH  34  43
HETATM   43  O3  NGA A   2     267.036 257.833 191.521  0.50 19.58    -0.327 OA
BRANCH  43  44
HETATM   44  C1  GAL A   3     266.395 258.070 192.770  0.50 14.41     0.270 C 
HETATM   45  C2  GAL A   3     265.421 259.215 192.591  0.50 11.27     0.241 C 
HETATM   46  O2  GAL A   3     266.124 260.350 192.129  0.50 11.99    -0.215 OA
HETATM   47  C3  GAL A   3     264.718 259.513 193.905  0.50  9.34     0.220 C 
HETATM   48  O3  GAL A   3     263.697 260.462 193.687  0.50 11.52    -0.218 OA
HETATM   49  C4  GAL A   3     264.217 258.232 194.565  0.50 10.13     0.215 C 
HETATM   50  O4  GAL A   3     263.166 257.729 193.785  0.50  7.87    -0.218 OA
HETATM   51  C5  GAL A   3     265.261 257.111 194.585  0.50 13.15     0.184 C 
HETATM   52  O5  GAL A   3     265.751 256.876 193.238  0.50 13.62    -0.326 OA
BRANCH  51  53
HETATM   53  C6  GAL A   3     264.728 255.769 195.074  0.50 18.07     0.215 C 
HETATM   54  O6  GAL A   3     265.028 255.548 196.437  0.50 13.12    -0.218 OA
ENDBRANCH  51  53
ENDBRANCH  43  44
ENDBRANCH  34  43
BRANCH  36  55
HETATM   55  C6  NGA A   2     269.982 253.885 191.607  0.50 20.58     0.215 C 
HETATM   56  O6  NGA A   2     269.904 253.409 192.932  0.50 30.49    -0.218 OA
ENDBRANCH  36  55
ENDBRANCH  31  32
ENDBRANCH   4  31
TORSDOF 15
ENDMDL
MODEL 3
REMARK VINA RESULT:      -6.5      3.275      6.918
REMARK  15 active torsions:
REMARK  status: ('A' for Active; 'I' for Inactive)
REMARK    1  A    between atoms: C3_3  and  O3_8 
REMARK    2  A    between atoms: C4_4  and  O4_9 
REMARK    3  A    between atoms: C5_5  and  C6_6 
REMARK    4  A    between atoms: O3_8  and  C2_38 
REMARK    5  A    between atoms: O4_9  and  C1_12 
REMARK    6  A    between atoms: C2_13  and  N2_20 
REMARK    7  A    between atoms: C3_14  and  O3_21 
REMARK    8  A    between atoms: C5_16  and  C6_17 
REMARK       I    between atoms: C7_18  and  N2_20 
REMARK    9  A    between atoms: O3_21  and  C1_26 
REMARK   10  A    between atoms: C5_30  and  C6_31 
REMARK   11  A    between atoms: C1_37  and  C2_38 
REMARK   12  A    between atoms: C5_41  and  N5_48 
REMARK   13  A    between atoms: C6_42  and  C7_43 
REMARK   14  A    between atoms: C7_43  and  C8_44 
REMARK   15  A    between atoms: C8_44  and  C9_45 
REMARK       I    between atoms: C10_46  and  N5_48 
ROOT
HETATM    1  C1  GAL A   1     284.843 259.776 194.783  0.50 30.86     0.178 C 
HETATM    2  C2  GAL A   1     284.485 258.305 195.007  0.50 31.03     0.211 C 
HETATM    3  C3  GAL A   1     282.992 258.078 195.138  0.50 28.77     0.181 C 
HETATM    4  C4  GAL A   1     282.371 259.063 196.125  0.50 28.47     0.177 C 
HETATM    5  C5  GAL A   1     282.867 260.471 195.926  0.50 29.35     0.178 C 
HETATM    6  O2  GAL A   1     285.076 257.556 193.960  0.50 30.41    -0.218 OA
HETATM    7  O5  GAL A   1     284.288 260.538 195.855  0.50 30.35    -0.349 OA
ENDROOT
BRANCH   3   8
HETATM    8  O3  GAL A   1     282.725 256.799 195.680  0.50 28.34    -0.324 OA
BRANCH   8   9
HETATM    9  C2  SIA A   4     281.693 255.981 195.172  0.50 28.62     0.271 C 
HETATM   10  O6  SIA A   4     280.554 255.871 196.000  0.50 31.74    -0.325 OA
HETATM   11  C6  SIA A   4     279.497 255.013 195.547  0.50 34.04     0.176 C 
HETATM   12  C5  SIA A   4     279.015 255.358 194.150  0.50 33.06     0.166 C 
HETATM   13  C4  SIA A   4     280.241 255.379 193.235  0.50 31.88     0.182 C 
HETATM   14  C3  SIA A   4     281.220 256.421 193.782  0.50 29.71     0.103 C 
HETATM   15  O4  SIA A   4     279.858 255.707 191.923  0.50 38.09    -0.221 OA
BRANCH   9  16
HETATM   16  C1  SIA A   4     282.324 254.600 194.974  0.50 27.73     0.240 C 
HETATM   17  O1A SIA A   4     282.087 253.706 195.808  0.50 31.28    -0.644 OA
HETATM   18  O1B SIA A   4     283.057 254.505 193.967  0.50 17.68    -0.644 OA
ENDBRANCH   9  16
BRANCH  11  19
HETATM   19  C7  SIA A   4     278.384 255.091 196.591  0.50 33.71     0.214 C 
HETATM   20  O7  SIA A   4     277.432 254.048 196.404  0.50 32.14    -0.218 OA
BRANCH  19  21
HETATM   21  C8  SIA A   4     277.649 256.427 196.429  0.50 34.22     0.218 C 
HETATM   22  O8  SIA A   4     278.005 257.345 197.442  0.50 31.83    -0.218 OA
BRANCH  21  23
HETATM   23  C9  SIA A   4     276.152 256.136 196.446  0.50 33.50     0.218 C 
HETATM   24  O9  SIA A   4     275.504 257.155 195.731  0.50 28.00    -0.218 OA
ENDBRANCH  21  23
ENDBRANCH  19  21
ENDBRANCH  11  19
BRANCH  12  25
HETATM   25  N5  SIA A   4     277.989 254.492 193.620  0.50 34.22    -0.235 NA
HETATM   26  C10 SIA A   4     276.883 254.918 193.007  0.50 33.32     0.252 C 
HETATM   27  C11 SIA A   4     275.943 253.764 192.575  0.50 19.88     0.100 C 
HETATM   28  O10 SIA A   4     276.740 256.159 192.899  0.50 29.43    -0.271 OA
ENDBRANCH  12  25
ENDBRANCH   8   9
ENDBRANCH   3   8
BRANCH   5  29
HETATM   29  C6  GAL A   1     282.418 261.312 197.126  0.50 30.53     0.214 C 
HETATM   30  O6  GAL A   1     281.172 261.912 196.854  0.50 33.07    -0.218 OA
ENDBRANCH   5  29
BRANCH   4  31
HETATM   31  O4  GAL A   1     282.784 258.739 197.441  0.50 31.21    -0.327 OA
BRANCH  31  32
HETATM   32  C1  NGA A   2     281.742 258.307 198.305  0.50 28.26     0.262 C 
HETATM   33  C2  NGA A   2     282.497 257.668 199.479  0.50 24.34     0.192 C 
HETATM   34  C3  NGA A   2     281.514 257.253 200.523  0.50 23.13     0.178 C 
HETATM   35  C4  NGA A   2     280.589 258.404 200.944  0.50 23.45     0.211 C 
HETATM   36  C5  NGA A   2     279.923 258.912 199.686  0.50 23.37     0.184 C 
HETATM   37  O4  NGA A   2     281.371 259.387 201.579  0.50 26.44    -0.218 OA
HETATM   38  O5  NGA A   2     280.913 259.374 198.769  0.50 27.92    -0.327 OA
BRANCH  33  39
HETATM   39  N2  NGA A   2     283.371 256.666 198.913  0.50 23.90    -0.232 NA
HETATM   40  C7  NGA A   2     284.675 256.662 199.234  0.50 22.89     0.252 C 
HETATM   41  C8  NGA A   2     285.496 255.598 198.500  0.50 21.65     0.100 C 
HETATM   42  O7  NGA A   2     285.069 257.517 200.055  0.50 27.34    -0.271 OA
ENDBRANCH  33  39
BRANCH  34  43
HETATM   43  O3  NGA A   2     282.211 256.833 201.695  0.50 19.58    -0.327 OA
BRANCH  43  44
HETATM   44  C1  GAL A   3     281.859 255.475 201.937  0.50 14.41     0.270 C 
HETATM   45  C2  GAL A   3     281.295 255.376 203.338  0.50 11.27     0.241 C 
HETATM   46  O2  GAL A   3     282.260 255.848 204.257  0.50 11.99    -0.215 OA
HETATM   47  C3  GAL A   3     280.913 253.939 203.648  0.50  9.34     0.220 C 
HETATM   48  O3  GAL A   3     280.237 253.888 204.885  0.50 11.52    -0.218 OA
HETATM   49  C4  GAL A   3     280.117 253.320 202.502  0.50 10.13     0.215 C 
HETATM   50  O4  GAL A   3     278.864 253.948 202.462  0.50  7.87    -0.218 OA
HETATM   51  C5  GAL A   3     280.733 253.585 201.124  0.50 13.15     0.184 C 
HETATM   52  O5  GAL A   3     280.931 255.012 200.944  0.50 13.62    -0.326 OA
BRANCH  51  53
HETATM   53  C6  GAL A   3     279.864 253.135 199.955  0.50 18.07     0.215 C 
HETATM   54  O6  GAL A   3     280.551 253.220 198.724  0.50 13.12    -0.218 OA
ENDBRANCH  51  53
ENDBRANCH  43  44
ENDBRANCH  34  43
BRANCH  36  55
HETATM   55  C6  NGA A   2     278.767 259.857 199.886  0.50 20.58     0.215 C 
HETATM   56  O6  NGA A   2     277.858 259.249 200.776  0.50 30.49    -0.218 OA
ENDBRANCH  36  55
ENDBRANCH  31  32
ENDBRANCH   4  31
TORSDOF 15
ENDMDL
MODEL 4
REMARK VINA RESULT:      -6.4     27.964     32.408
REMARK  15 active torsions:
REMARK  status: ('A' for Active; 'I' for Inactive)
REMARK    1  A    between atoms: C3_3  and  O3_8 
REMARK    2  A    between atoms: C4_4  and  O4_9 
REMARK    3  A    between atoms: C5_5  and  C6_6 
REMARK    4  A    between atoms: O3_8  and  C2_38 
REMARK    5  A    between atoms: O4_9  and  C1_12 
REMARK    6  A    between atoms: C2_13  and  N2_20 
REMARK    7  A    between atoms: C3_14  and  O3_21 
REMARK    8  A    between atoms: C5_16  and  C6_17 
REMARK       I    between atoms: C7_18  and  N2_20 
REMARK    9  A    between atoms: O3_21  and  C1_26 
REMARK   10  A    between atoms: C5_30  and  C6_31 
REMARK   11  A    between atoms: C1_37  and  C2_38 
REMARK   12  A    between atoms: C5_41  and  N5_48 
REMARK   13  A    between atoms: C6_42  and  C7_43 
REMARK   14  A    between atoms: C7_43  and  C8_44 
REMARK   15  A    between atoms: C8_44  and  C9_45 
REMARK       I    between atoms: C10_46  and  N5_48 
ROOT
HETATM    1  C1  GAL A   1     260.364 270.700 213.357  0.50 30.86     0.178 C 
HETATM    2  C2  GAL A   1     261.167 271.893 212.833  0.50 31.03     0.211 C 
HETATM    3  C3  GAL A   1     260.461 273.216 213.050  0.50 28.77     0.181 C 
HETATM    4  C4  GAL A   1     259.008 273.146 212.585  0.50 28.47     0.177 C 
HETATM    5  C5  GAL A   1     258.319 271.884 213.032  0.50 29.35     0.178 C 
HETATM    6  O2  GAL A   1     262.452 271.839 213.427  0.50 30.41    -0.218 OA
HETATM    7  O5  GAL A   1     259.080 270.718 212.734  0.50 30.35    -0.349 OA
ENDROOT
BRANCH   3   8
HETATM    8  O3  GAL A   1     261.049 274.234 212.263  0.50 28.34    -0.324 OA
BRANCH   8   9
HETATM    9  C2  SIA A   4     261.270 275.530 212.774  0.50 28.62     0.271 C 
HETATM   10  O6  SIA A   4     261.027 276.582 211.863  0.50 31.74    -0.325 OA
HETATM   11  C6  SIA A   4     261.283 277.917 212.323  0.50 34.04     0.176 C 
HETATM   12  C5  SIA A   4     260.550 278.247 213.610  0.50 33.06     0.166 C 
HETATM   13  C4  SIA A   4     260.894 277.158 214.627  0.50 31.88     0.182 C 
HETATM   14  C3  SIA A   4     260.456 275.812 214.041  0.50 29.71     0.103 C 
HETATM   15  O4  SIA A   4     260.231 277.404 215.841  0.50 38.09    -0.221 OA
BRANCH   9  16
HETATM   16  C1  SIA A   4     262.737 275.553 213.212  0.50 27.73     0.240 C 
HETATM   17  O1A SIA A   4     263.603 275.918 212.394  0.50 31.28    -0.644 OA
HETATM   18  O1B SIA A   4     262.934 275.174 214.386  0.50 17.68    -0.644 OA
ENDBRANCH   9  16
BRANCH  11  19
HETATM   19  C7  SIA A   4     260.917 278.859 211.177  0.50 33.71     0.214 C 
HETATM   20  O7  SIA A   4     260.543 278.128 210.014  0.50 32.14    -0.218 OA
BRANCH  19  21
HETATM   21  C8  SIA A   4     262.146 279.704 210.821  0.50 34.22     0.218 C 
HETATM   22  O8  SIA A   4     263.268 279.349 211.602  0.50 31.83    -0.218 OA
BRANCH  21  23
HETATM   23  C9  SIA A   4     261.773 281.169 211.022  0.50 33.50     0.218 C 
HETATM   24  O9  SIA A   4     260.381 281.285 210.891  0.50 28.00    -0.218 OA
ENDBRANCH  21  23
ENDBRANCH  19  21
ENDBRANCH  11  19
BRANCH  12  25
HETATM   25  N5  SIA A   4     260.812 279.560 214.150  0.50 34.22    -0.235 NA
HETATM   26  C10 SIA A   4     259.891 280.513 214.304  0.50 33.32     0.252 C 
HETATM   27  C11 SIA A   4     260.468 281.833 214.874  0.50 19.88     0.100 C 
HETATM   28  O10 SIA A   4     258.724 280.232 213.942  0.50 29.43    -0.271 OA
ENDBRANCH  12  25
ENDBRANCH   8   9
ENDBRANCH   3   8
BRANCH   5  29
HETATM   29  C6  GAL A   1     256.985 271.777 212.285  0.50 30.53     0.214 C 
HETATM   30  O6  GAL A   1     256.900 270.533 211.626  0.50 33.07    -0.218 OA
ENDBRANCH   5  29
BRANCH   4  31
HETATM   31  O4  GAL A   1     258.966 273.076 211.170  0.50 31.21    -0.327 OA
BRANCH  31  32
HETATM   32  C1  NGA A   2     258.626 274.294 210.522  0.50 28.26     0.262 C 
HETATM   33  C2  NGA A   2     257.670 273.846 209.407  0.50 24.34     0.192 C 
HETATM   34  C3  NGA A   2     257.150 275.051 208.698  0.50 23.13     0.178 C 
HETATM   35  C4  NGA A   2     256.530 276.073 209.661  0.50 23.45     0.211 C 
HETATM   36  C5  NGA A   2     257.592 276.411 210.682  0.50 23.37     0.184 C 
HETATM   37  O4  NGA A   2     255.386 275.494 210.241  0.50 26.44    -0.218 OA
HETATM   38  O5  NGA A   2     257.980 275.232 211.383  0.50 27.92    -0.327 OA
BRANCH  33  39
HETATM   39  N2  NGA A   2     258.370 272.838 208.642  0.50 23.90    -0.232 NA
HETATM   40  C7  NGA A   2     257.726 271.722 208.267  0.50 22.89     0.252 C 
HETATM   41  C8  NGA A   2     258.609 270.708 207.533  0.50 21.65     0.100 C 
HETATM   42  O7  NGA A   2     256.517 271.624 208.567  0.50 27.34    -0.271 OA
ENDBRANCH  33  39
BRANCH  34  43
HETATM   43  O3  NGA A   2     256.121 274.663 207.789  0.50 19.58    -0.327 OA
BRANCH  43  44
HETATM   44  C1  GAL A   3     256.542 275.039 206.482  0.50 14.41     0.270 C 
HETATM   45  C2  GAL A   3     256.824 276.527 206.487  0.50 11.27     0.241 C 
HETATM   46  O2  GAL A   3     255.658 277.215 206.890  0.50 11.99    -0.215 OA
HETATM   47  C3  GAL A   3     257.268 276.979 205.106  0.50  9.34     0.220 C 
HETATM   48  O3  GAL A   3     257.688 278.325 205.165  0.50 11.52    -0.218 OA
HETATM   49  C4  GAL A   3     258.327 276.043 204.533  0.50 10.13     0.215 C 
HETATM   50  O4  GAL A   3     259.501 276.213 205.281  0.50  7.87    -0.218 OA
HETATM   51  C5  GAL A   3     257.975 274.560 204.688  0.50 13.15     0.184 C 
HETATM   52  O5  GAL A   3     257.686 274.271 206.081  0.50 13.62    -0.326 OA
BRANCH  51  53
HETATM   53  C6  GAL A   3     259.095 273.607 204.288  0.50 18.07     0.215 C 
HETATM   54  O6  GAL A   3     258.681 272.257 204.336  0.50 13.12    -0.218 OA
ENDBRANCH  51  53
ENDBRANCH  43  44
ENDBRANCH  34  43
BRANCH  36  55
HETATM   55  C6  NGA A   2     257.306 277.598 211.565  0.50 20.58     0.215 C 
HETATM   56  O6  NGA A   2     257.363 277.166 212.905  0.50 30.49    -0.218 OA
ENDBRANCH  36  55
ENDBRANCH  31  32
ENDBRANCH   4  31
TORSDOF 15
ENDMDL
MODEL 5
REMARK VINA RESULT:      -6.2     28.861     33.005
REMARK  15 active torsions:
REMARK  status: ('A' for Active; 'I' for Inactive)
REMARK    1  A    between atoms: C3_3  and  O3_8 
REMARK    2  A    between atoms: C4_4  and  O4_9 
REMARK    3  A    between atoms: C5_5  and  C6_6 
REMARK    4  A    between atoms: O3_8  and  C2_38 
REMARK    5  A    between atoms: O4_9  and  C1_12 
REMARK    6  A    between atoms: C2_13  and  N2_20 
REMARK    7  A    between atoms: C3_14  and  O3_21 
REMARK    8  A    between atoms: C5_16  and  C6_17 
REMARK       I    between atoms: C7_18  and  N2_20 
REMARK    9  A    between atoms: O3_21  and  C1_26 
REMARK   10  A    between atoms: C5_30  and  C6_31 
REMARK   11  A    between atoms: C1_37  and  C2_38 
REMARK   12  A    between atoms: C5_41  and  N5_48 
REMARK   13  A    between atoms: C6_42  and  C7_43 
REMARK   14  A    between atoms: C7_43  and  C8_44 
REMARK   15  A    between atoms: C8_44  and  C9_45 
REMARK       I    between atoms: C10_46  and  N5_48 
ROOT
HETATM    1  C1  GAL A   1     261.600 275.736 215.677  0.50 30.86     0.178 C 
HETATM    2  C2  GAL A   1     261.540 275.733 214.148  0.50 31.03     0.211 C 
HETATM    3  C3  GAL A   1     260.469 276.655 213.601  0.50 28.77     0.181 C 
HETATM    4  C4  GAL A   1     259.137 276.432 214.311  0.50 28.47     0.177 C 
HETATM    5  C5  GAL A   1     259.290 276.319 215.804  0.50 29.35     0.178 C 
HETATM    6  O2  GAL A   1     262.838 276.034 213.669  0.50 30.41    -0.218 OA
HETATM    7  O5  GAL A   1     260.306 275.393 216.175  0.50 30.35    -0.349 OA
ENDROOT
BRANCH   3   8
HETATM    8  O3  GAL A   1     260.212 276.372 212.239  0.50 28.34    -0.324 OA
BRANCH   8   9
HETATM    9  C2  SIA A   4     260.294 277.372 211.246  0.50 28.62     0.271 C 
HETATM   10  O6  SIA A   4     259.061 277.951 210.878  0.50 31.74    -0.325 OA
HETATM   11  C6  SIA A   4     259.089 278.941 209.838  0.50 34.04     0.176 C 
HETATM   12  C5  SIA A   4     260.058 280.072 210.127  0.50 33.06     0.166 C 
HETATM   13  C4  SIA A   4     261.419 279.443 210.430  0.50 31.88     0.182 C 
HETATM   14  C3  SIA A   4     261.249 278.507 211.630  0.50 29.71     0.103 C 
HETATM   15  O4  SIA A   4     262.360 280.446 210.720  0.50 38.09    -0.221 OA
BRANCH   9  16
HETATM   16  C1  SIA A   4     260.930 276.691 210.032  0.50 27.73     0.240 C 
HETATM   17  O1A SIA A   4     260.227 276.476 209.026  0.50 31.28    -0.644 OA
HETATM   18  O1B SIA A   4     262.135 276.390 210.177  0.50 17.68    -0.644 OA
ENDBRANCH   9  16
BRANCH  11  19
HETATM   19  C7  SIA A   4     257.653 279.428 209.651  0.50 33.71     0.214 C 
HETATM   20  O7  SIA A   4     256.778 278.818 210.594  0.50 32.14    -0.218 OA
BRANCH  19  21
HETATM   21  C8  SIA A   4     257.176 279.032 208.249  0.50 34.22     0.218 C 
HETATM   22  O8  SIA A   4     258.010 278.048 207.672  0.50 31.83    -0.218 OA
BRANCH  21  23
HETATM   23  C9  SIA A   4     257.141 280.296 207.397  0.50 33.50     0.218 C 
HETATM   24  O9  SIA A   4     258.195 280.228 206.474  0.50 28.00    -0.218 OA
ENDBRANCH  21  23
ENDBRANCH  19  21
ENDBRANCH  11  19
BRANCH  12  25
HETATM   25  N5  SIA A   4     260.169 281.070 209.090  0.50 34.22    -0.235 NA
HETATM   26  C10 SIA A   4     259.805 282.346 209.225  0.50 33.32     0.252 C 
HETATM   27  C11 SIA A   4     260.005 283.178 207.934  0.50 19.88     0.100 C 
HETATM   28  O10 SIA A   4     259.329 282.682 210.336  0.50 29.43    -0.271 OA
ENDBRANCH  12  25
ENDBRANCH   8   9
ENDBRANCH   3   8
BRANCH   5  29
HETATM   29  C6  GAL A   1     257.963 275.815 216.385  0.50 30.53     0.214 C 
HETATM   30  O6  GAL A   1     257.860 276.182 217.742  0.50 33.07    -0.218 OA
ENDBRANCH   5  29
BRANCH   4  31
HETATM   31  O4  GAL A   1     258.599 275.179 213.926  0.50 31.21    -0.327 OA
BRANCH  31  32
HETATM   32  C1  NGA A   2     257.757 275.216 212.782  0.50 28.26     0.262 C 
HETATM   33  C2  NGA A   2     257.683 273.744 212.350  0.50 24.34     0.192 C 
HETATM   34  C3  NGA A   2     256.739 273.621 211.201  0.50 23.13     0.178 C 
HETATM   35  C4  NGA A   2     255.366 274.238 211.505  0.50 23.45     0.211 C 
HETATM   36  C5  NGA A   2     255.612 275.674 211.905  0.50 23.37     0.184 C 
HETATM   37  O4  NGA A   2     254.763 273.486 212.530  0.50 26.44    -0.218 OA
HETATM   38  O5  NGA A   2     256.448 275.718 213.059  0.50 27.92    -0.327 OA
BRANCH  33  39
HETATM   39  N2  NGA A   2     259.047 273.295 212.178  0.50 23.90    -0.232 NA
HETATM   40  C7  NGA A   2     259.483 272.221 212.855  0.50 22.89     0.252 C 
HETATM   41  C8  NGA A   2     260.967 271.907 212.639  0.50 21.65     0.100 C 
HETATM   42  O7  NGA A   2     258.662 271.625 213.584  0.50 27.34    -0.271 OA
ENDBRANCH  33  39
BRANCH  34  43
HETATM   43  O3  NGA A   2     256.517 272.241 210.912  0.50 19.58    -0.327 OA
BRANCH  43  44
HETATM   44  C1  GAL A   3     257.264 271.924 209.743  0.50 14.41     0.270 C 
HETATM   45  C2  GAL A   3     256.794 270.580 209.231  0.50 11.27     0.241 C 
HETATM   46  O2  GAL A   3     256.963 269.614 210.249  0.50 11.99    -0.215 OA
HETATM   47  C3  GAL A   3     257.573 270.193 207.985  0.50  9.34     0.220 C 
HETATM   48  O3  GAL A   3     257.013 269.025 207.424  0.50 11.52    -0.218 OA
HETATM   49  C4  GAL A   3     257.652 271.355 207.000  0.50 10.13     0.215 C 
HETATM   50  O4  GAL A   3     256.366 271.565 206.481  0.50  7.87    -0.218 OA
HETATM   51  C5  GAL A   3     258.030 272.685 207.660  0.50 13.15     0.184 C 
HETATM   52  O5  GAL A   3     257.122 272.960 208.759  0.50 13.62    -0.326 OA
BRANCH  51  53
HETATM   53  C6  GAL A   3     257.938 273.891 206.733  0.50 18.07     0.215 C 
HETATM   54  O6  GAL A   3     256.997 274.839 207.192  0.50 13.12    -0.218 OA
ENDBRANCH  51  53
ENDBRANCH  43  44
ENDBRANCH  34  43
BRANCH  36  55
HETATM   55  C6  NGA A   2     254.394 276.556 211.983  0.50 20.58     0.215 C 
HETATM   56  O6  NGA A   2     254.217 276.935 213.329  0.50 30.49    -0.218 OA
ENDBRANCH  36  55
ENDBRANCH  31  32
ENDBRANCH   4  31
TORSDOF 15
ENDMDL
MODEL 6
REMARK VINA RESULT:      -6.1     12.201     16.970
REMARK  15 active torsions:
REMARK  status: ('A' for Active; 'I' for Inactive)
REMARK    1  A    between atoms: C3_3  and  O3_8 
REMARK    2  A    between atoms: C4_4  and  O4_9 
REMARK    3  A    between atoms: C5_5  and  C6_6 
REMARK    4  A    between atoms: O3_8  and  C2_38 
REMARK    5  A    between atoms: O4_9  and  C1_12 
REMARK    6  A    between atoms: C2_13  and  N2_20 
REMARK    7  A    between atoms: C3_14  and  O3_21 
REMARK    8  A    between atoms: C5_16  and  C6_17 
REMARK       I    between atoms: C7_18  and  N2_20 
REMARK    9  A    between atoms: O3_21  and  C1_26 
REMARK   10  A    between atoms: C5_30  and  C6_31 
REMARK   11  A    between atoms: C1_37  and  C2_38 
REMARK   12  A    between atoms: C5_41  and  N5_48 
REMARK   13  A    between atoms: C6_42  and  C7_43 
REMARK   14  A    between atoms: C7_43  and  C8_44 
REMARK   15  A    between atoms: C8_44  and  C9_45 
REMARK       I    between atoms: C10_46  and  N5_48 
ROOT
HETATM    1  C1  GAL A   1     262.282 250.006 193.798  0.50 30.86     0.178 C 
HETATM    2  C2  GAL A   1     262.132 248.490 193.939  0.50 31.03     0.211 C 
HETATM    3  C3  GAL A   1     263.102 247.894 194.939  0.50 28.77     0.181 C 
HETATM    4  C4  GAL A   1     264.523 248.394 194.691  0.50 28.47     0.177 C 
HETATM    5  C5  GAL A   1     264.577 249.877 194.436  0.50 29.35     0.178 C 
HETATM    6  O2  GAL A   1     260.775 248.220 194.243  0.50 30.41    -0.218 OA
HETATM    7  O5  GAL A   1     263.638 250.291 193.450  0.50 30.35    -0.349 OA
ENDROOT
BRANCH   3   8
HETATM    8  O3  GAL A   1     263.176 246.489 194.790  0.50 28.34    -0.324 OA
BRANCH   8   9
HETATM    9  C2  SIA A   4     262.952 245.617 195.877  0.50 28.62     0.271 C 
HETATM   10  O6  SIA A   4     263.974 244.669 196.103  0.50 31.74    -0.325 OA
HETATM   11  C6  SIA A   4     263.769 243.730 197.169  0.50 34.04     0.176 C 
HETATM   12  C5  SIA A   4     263.467 244.401 198.495  0.50 33.06     0.166 C 
HETATM   13  C4  SIA A   4     262.293 245.356 198.269  0.50 31.88     0.182 C 
HETATM   14  C3  SIA A   4     262.708 246.364 197.193  0.50 29.71     0.103 C 
HETATM   15  O4  SIA A   4     261.973 246.020 199.465  0.50 38.09    -0.221 OA
BRANCH   9  16
HETATM   16  C1  SIA A   4     261.639 244.898 195.561  0.50 27.73     0.240 C 
HETATM   17  O1A SIA A   4     261.677 243.825 194.929  0.50 31.28    -0.644 OA
HETATM   18  O1B SIA A   4     260.613 245.486 195.968  0.50 17.68    -0.644 OA
ENDBRANCH   9  16
BRANCH  11  19
HETATM   19  C7  SIA A   4     265.014 242.846 197.226  0.50 33.71     0.214 C 
HETATM   20  O7  SIA A   4     265.892 243.127 196.140  0.50 32.14    -0.218 OA
BRANCH  19  21
HETATM   21  C8  SIA A   4     264.584 241.379 197.109  0.50 34.22     0.218 C 
HETATM   22  O8  SIA A   4     263.209 241.261 196.807  0.50 31.83    -0.218 OA
BRANCH  21  23
HETATM   23  C9  SIA A   4     264.922 240.691 198.426  0.50 33.50     0.218 C 
HETATM   24  O9  SIA A   4     266.061 241.312 198.961  0.50 28.00    -0.218 OA
ENDBRANCH  21  23
ENDBRANCH  19  21
ENDBRANCH  11  19
BRANCH  12  25
HETATM   25  N5  SIA A   4     263.198 243.504 199.594  0.50 34.22    -0.235 NA
HETATM   26  C10 SIA A   4     263.909 243.454 200.721  0.50 33.32     0.252 C 
HETATM   27  C11 SIA A   4     263.412 242.368 201.709  0.50 19.88     0.100 C 
HETATM   28  O10 SIA A   4     264.878 244.244 200.812  0.50 29.43    -0.271 OA
ENDBRANCH  12  25
ENDBRANCH   8   9
ENDBRANCH   3   8
BRANCH   5  29
HETATM   29  C6  GAL A   1     265.979 250.223 193.921  0.50 30.53     0.214 C 
HETATM   30  O6  GAL A   1     265.889 251.140 192.855  0.50 33.07    -0.218 OA
ENDBRANCH   5  29
BRANCH   4  31
HETATM   31  O4  GAL A   1     265.024 247.823 193.495  0.50 31.21    -0.327 OA
BRANCH  31  32
HETATM   32  C1  NGA A   2     266.033 246.840 193.681  0.50 28.26     0.262 C 
HETATM   33  C2  NGA A   2     267.010 247.114 192.528  0.50 24.34     0.192 C 
HETATM   34  C3  NGA A   2     268.186 246.205 192.659  0.50 23.13     0.178 C 
HETATM   35  C4  NGA A   2     268.838 246.291 194.046  0.50 23.45     0.211 C 
HETATM   36  C5  NGA A   2     267.756 245.992 195.057  0.50 23.37     0.184 C 
HETATM   37  O4  NGA A   2     269.381 247.580 194.198  0.50 26.44    -0.218 OA
HETATM   38  O5  NGA A   2     266.705 246.948 194.937  0.50 27.92    -0.327 OA
BRANCH  33  39
HETATM   39  N2  NGA A   2     266.233 247.072 191.309  0.50 23.90    -0.232 NA
HETATM   40  C7  NGA A   2     266.335 248.073 190.421  0.50 22.89     0.252 C 
HETATM   41  C8  NGA A   2     265.398 247.938 189.217  0.50 21.65     0.100 C 
HETATM   42  O7  NGA A   2     267.144 248.991 190.676  0.50 27.34    -0.271 OA
ENDBRANCH  33  39
BRANCH  34  43
HETATM   43  O3  NGA A   2     269.184 246.577 191.709  0.50 19.58    -0.327 OA
BRANCH  43  44
HETATM   44  C1  GAL A   3     270.099 245.491 191.605  0.50 14.41     0.270 C 
HETATM   45  C2  GAL A   3     270.031 244.949 190.193  0.50 11.27     0.241 C 
HETATM   46  O2  GAL A   3     268.703 244.554 189.915  0.50 11.99    -0.215 OA
HETATM   47  C3  GAL A   3     270.986 243.778 190.036  0.50  9.34     0.220 C 
HETATM   48  O3  GAL A   3     271.038 243.392 188.680  0.50 11.52    -0.218 OA
HETATM   49  C4  GAL A   3     272.357 244.101 190.621  0.50 10.13     0.215 C 
HETATM   50  O4  GAL A   3     272.955 245.071 189.804  0.50  7.87    -0.218 OA
HETATM   51  C5  GAL A   3     272.287 244.748 192.009  0.50 13.15     0.184 C 
HETATM   52  O5  GAL A   3     271.424 245.914 191.961  0.50 13.62    -0.326 OA
BRANCH  51  53
HETATM   53  C6  GAL A   3     273.629 245.244 192.535  0.50 18.07     0.215 C 
HETATM   54  O6  GAL A   3     274.386 244.203 193.116  0.50 13.12    -0.218 OA
ENDBRANCH  51  53
ENDBRANCH  43  44
ENDBRANCH  34  43
BRANCH  36  55
HETATM   55  C6  NGA A   2     268.220 245.748 196.469  0.50 20.58     0.215 C 
HETATM   56  O6  NGA A   2     267.132 245.990 197.332  0.50 30.49    -0.218 OA
ENDBRANCH  36  55
ENDBRANCH  31  32
ENDBRANCH   4  31
TORSDOF 15
ENDMDL
MODEL 7
REMARK VINA RESULT:      -6.1      5.051      8.427
REMARK  15 active torsions:
REMARK  status: ('A' for Active; 'I' for Inactive)
REMARK    1  A    between atoms: C3_3  and  O3_8 
REMARK    2  A    between atoms: C4_4  and  O4_9 
REMARK    3  A    between atoms: C5_5  and  C6_6 
REMARK    4  A    between atoms: O3_8  and  C2_38 
REMARK    5  A    between atoms: O4_9  and  C1_12 
REMARK    6  A    between atoms: C2_13  and  N2_20 
REMARK    7  A    between atoms: C3_14  and  O3_21 
REMARK    8  A    between atoms: C5_16  and  C6_17 
REMARK       I    between atoms: C7_18  and  N2_20 
REMARK    9  A    between atoms: O3_21  and  C1_26 
REMARK   10  A    between atoms: C5_30  and  C6_31 
REMARK   11  A    between atoms: C1_37  and  C2_38 
REMARK   12  A    between atoms: C5_41  and  N5_48 
REMARK   13  A    between atoms: C6_42  and  C7_43 
REMARK   14  A    between atoms: C7_43  and  C8_44 
REMARK   15  A    between atoms: C8_44  and  C9_45 
REMARK       I    between atoms: C10_46  and  N5_48 
ROOT
HETATM    1  C1  GAL A   1     277.735 255.785 196.400  0.50 30.86     0.178 C 
HETATM    2  C2  GAL A   1     278.131 256.649 197.599  0.50 31.03     0.211 C 
HETATM    3  C3  GAL A   1     279.633 256.774 197.762  0.50 28.77     0.181 C 
HETATM    4  C4  GAL A   1     280.310 255.408 197.684  0.50 28.47     0.177 C 
HETATM    5  C5  GAL A   1     279.779 254.564 196.555  0.50 29.35     0.178 C 
HETATM    6  O2  GAL A   1     277.475 257.896 197.464  0.50 30.41    -0.218 OA
HETATM    7  O5  GAL A   1     278.356 254.507 196.546  0.50 30.35    -0.349 OA
ENDROOT
BRANCH   3   8
HETATM    8  O3  GAL A   1     279.959 257.272 199.045  0.50 28.34    -0.324 OA
BRANCH   8   9
HETATM    9  C2  SIA A   4     280.717 258.450 199.211  0.50 28.62     0.271 C 
HETATM   10  O6  SIA A   4     281.383 258.901 198.050  0.50 31.74    -0.325 OA
HETATM   11  C6  SIA A   4     282.205 260.071 198.181  0.50 34.04     0.176 C 
HETATM   12  C5  SIA A   4     281.458 261.253 198.768  0.50 33.06     0.166 C 
HETATM   13  C4  SIA A   4     280.819 260.787 200.078  0.50 31.88     0.182 C 
HETATM   14  C3  SIA A   4     279.886 259.616 199.756  0.50 29.71     0.103 C 
HETATM   15  O4  SIA A   4     280.099 261.841 200.665  0.50 38.09    -0.221 OA
BRANCH   9  16
HETATM   16  C1  SIA A   4     281.741 258.128 200.303  0.50 27.73     0.240 C 
HETATM   17  O1A SIA A   4     282.862 257.701 199.969  0.50 31.28    -0.644 OA
HETATM   18  O1B SIA A   4     281.332 258.316 201.469  0.50 17.68    -0.644 OA
ENDBRANCH   9  16
BRANCH  11  19
HETATM   19  C7  SIA A   4     282.781 260.365 196.796  0.50 33.71     0.214 C 
HETATM   20  O7  SIA A   4     281.751 260.727 195.881  0.50 32.14    -0.218 OA
BRANCH  19  21
HETATM   21  C8  SIA A   4     283.455 259.096 196.262  0.50 34.22     0.218 C 
HETATM   22  O8  SIA A   4     284.679 258.839 196.918  0.50 31.83    -0.218 OA
BRANCH  21  23
HETATM   23  C9  SIA A   4     283.657 259.276 194.762  0.50 33.50     0.218 C 
HETATM   24  O9  SIA A   4     284.548 258.285 194.322  0.50 28.00    -0.218 OA
ENDBRANCH  21  23
ENDBRANCH  19  21
ENDBRANCH  11  19
BRANCH  12  25
HETATM   25  N5  SIA A   4     282.250 262.443 198.974  0.50 34.22    -0.235 NA
HETATM   26  C10 SIA A   4     281.988 263.630 198.425  0.50 33.32     0.252 C 
HETATM   27  C11 SIA A   4     283.029 264.716 198.795  0.50 19.88     0.100 C 
HETATM   28  O10 SIA A   4     280.984 263.696 197.676  0.50 29.43    -0.271 OA
ENDBRANCH  12  25
ENDBRANCH   8   9
ENDBRANCH   3   8
BRANCH   5  29
HETATM   29  C6  GAL A   1     280.303 253.136 196.738  0.50 30.53     0.214 C 
HETATM   30  O6  GAL A   1     281.636 253.049 196.287  0.50 33.07    -0.218 OA
ENDBRANCH   5  29
BRANCH   4  31
HETATM   31  O4  GAL A   1     280.000 254.659 198.846  0.50 31.21    -0.327 OA
BRANCH  31  32
HETATM   32  C1  NGA A   2     281.058 254.555 199.789  0.50 28.26     0.262 C 
HETATM   33  C2  NGA A   2     280.324 254.416 201.130  0.50 24.34     0.192 C 
HETATM   34  C3  NGA A   2     281.326 254.196 202.214  0.50 23.13     0.178 C 
HETATM   35  C4  NGA A   2     282.269 253.024 201.908  0.50 23.45     0.211 C 
HETATM   36  C5  NGA A   2     282.911 253.317 200.572  0.50 23.37     0.184 C 
HETATM   37  O4  NGA A   2     281.509 251.840 201.897  0.50 26.44    -0.218 OA
HETATM   38  O5  NGA A   2     281.906 253.427 199.567  0.50 27.92    -0.327 OA
BRANCH  33  39
HETATM   39  N2  NGA A   2     279.429 255.546 201.231  0.50 23.90    -0.232 NA
HETATM   40  C7  NGA A   2     278.168 255.361 201.654  0.50 22.89     0.252 C 
HETATM   41  C8  NGA A   2     277.310 256.630 201.635  0.50 21.65     0.100 C 
HETATM   42  O7  NGA A   2     277.835 254.203 201.985  0.50 27.34    -0.271 OA
ENDBRANCH  33  39
BRANCH  34  43
HETATM   43  O3  NGA A   2     280.651 253.878 203.430  0.50 19.58    -0.327 OA
BRANCH  43  44
HETATM   44  C1  GAL A   3     281.047 254.840 204.402  0.50 14.41     0.270 C 
HETATM   45  C2  GAL A   3     281.406 254.105 205.675  0.50 11.27     0.241 C 
HETATM   46  O2  GAL A   3     280.292 253.347 206.100  0.50 11.99    -0.215 OA
HETATM   47  C3  GAL A   3     281.827 255.095 206.749  0.50  9.34     0.220 C 
HETATM   48  O3  GAL A   3     282.319 254.392 207.870  0.50 11.52    -0.218 OA
HETATM   49  C4  GAL A   3     282.816 256.118 206.200  0.50 10.13     0.215 C 
HETATM   50  O4  GAL A   3     284.021 255.452 205.936  0.50  7.87    -0.218 OA
HETATM   51  C5  GAL A   3     282.392 256.709 204.851  0.50 13.15     0.184 C 
HETATM   52  O5  GAL A   3     282.135 255.636 203.908  0.50 13.62    -0.326 OA
BRANCH  51  53
HETATM   53  C6  GAL A   3     283.446 257.594 204.198  0.50 18.07     0.215 C 
HETATM   54  O6  GAL A   3     283.264 258.957 204.520  0.50 13.12    -0.218 OA
ENDBRANCH  51  53
ENDBRANCH  43  44
ENDBRANCH  34  43
BRANCH  36  55
HETATM   55  C6  NGA A   2     284.079 252.443 200.194  0.50 20.58     0.215 C 
HETATM   56  O6  NGA A   2     284.997 253.233 199.473  0.50 30.49    -0.218 OA
ENDBRANCH  36  55
ENDBRANCH  31  32
ENDBRANCH   4  31
TORSDOF 15
ENDMDL
MODEL 8
REMARK VINA RESULT:      -6.1      3.406      7.169
REMARK  15 active torsions:
REMARK  status: ('A' for Active; 'I' for Inactive)
REMARK    1  A    between atoms: C3_3  and  O3_8 
REMARK    2  A    between atoms: C4_4  and  O4_9 
REMARK    3  A    between atoms: C5_5  and  C6_6 
REMARK    4  A    between atoms: O3_8  and  C2_38 
REMARK    5  A    between atoms: O4_9  and  C1_12 
REMARK    6  A    between atoms: C2_13  and  N2_20 
REMARK    7  A    between atoms: C3_14  and  O3_21 
REMARK    8  A    between atoms: C5_16  and  C6_17 
REMARK       I    between atoms: C7_18  and  N2_20 
REMARK    9  A    between atoms: O3_21  and  C1_26 
REMARK   10  A    between atoms: C5_30  and  C6_31 
REMARK   11  A    between atoms: C1_37  and  C2_38 
REMARK   12  A    between atoms: C5_41  and  N5_48 
REMARK   13  A    between atoms: C6_42  and  C7_43 
REMARK   14  A    between atoms: C7_43  and  C8_44 
REMARK   15  A    between atoms: C8_44  and  C9_45 
REMARK       I    between atoms: C10_46  and  N5_48 
ROOT
HETATM    1  C1  GAL A   1     284.461 258.875 194.625  0.50 30.86     0.178 C 
HETATM    2  C2  GAL A   1     283.916 257.525 195.096  0.50 31.03     0.211 C 
HETATM    3  C3  GAL A   1     282.437 257.572 195.426  0.50 28.77     0.181 C 
HETATM    4  C4  GAL A   1     282.112 258.762 196.325  0.50 28.47     0.177 C 
HETATM    5  C5  GAL A   1     282.786 260.030 195.870  0.50 29.35     0.178 C 
HETATM    6  O2  GAL A   1     284.240 256.564 194.108  0.50 30.41    -0.218 OA
HETATM    7  O5  GAL A   1     284.177 259.847 195.632  0.50 30.35    -0.349 OA
ENDROOT
BRANCH   3   8
HETATM    8  O3  GAL A   1     282.053 256.433 196.172  0.50 28.34    -0.324 OA
BRANCH   8   9
HETATM    9  C2  SIA A   4     281.027 255.571 195.731  0.50 28.62     0.271 C 
HETATM   10  O6  SIA A   4     280.614 255.767 194.394  0.50 31.74    -0.325 OA
HETATM   11  C6  SIA A   4     279.540 254.944 193.914  0.50 34.04     0.176 C 
HETATM   12  C5  SIA A   4     279.806 253.462 194.098  0.50 33.06     0.166 C 
HETATM   13  C4  SIA A   4     280.157 253.238 195.570  0.50 31.88     0.182 C 
HETATM   14  C3  SIA A   4     281.387 254.091 195.897  0.50 29.71     0.103 C 
HETATM   15  O4  SIA A   4     280.427 251.879 195.801  0.50 38.09    -0.221 OA
BRANCH   9  16
HETATM   16  C1  SIA A   4     279.849 255.818 196.677  0.50 27.73     0.240 C 
HETATM   17  O1A SIA A   4     279.006 256.684 196.376  0.50 31.28    -0.644 OA
HETATM   18  O1B SIA A   4     279.856 255.112 197.709  0.50 17.68    -0.644 OA
ENDBRANCH   9  16
BRANCH  11  19
HETATM   19  C7  SIA A   4     279.309 255.325 192.453  0.50 33.71     0.214 C 
HETATM   20  O7  SIA A   4     280.176 256.384 192.057  0.50 32.14    -0.218 OA
BRANCH  19  21
HETATM   21  C8  SIA A   4     277.867 255.819 192.294  0.50 34.22     0.218 C 
HETATM   22  O8  SIA A   4     277.204 255.908 193.539  0.50 31.83    -0.218 OA
BRANCH  21  23
HETATM   23  C9  SIA A   4     277.149 254.858 191.352  0.50 33.50     0.218 C 
HETATM   24  O9  SIA A   4     276.147 254.202 192.083  0.50 28.00    -0.218 OA
ENDBRANCH  21  23
ENDBRANCH  19  21
ENDBRANCH  11  19
BRANCH  12  25
HETATM   25  N5  SIA A   4     278.736 252.587 193.683  0.50 34.22    -0.235 NA
HETATM   26  C10 SIA A   4     278.807 251.739 192.657  0.50 33.32     0.252 C 
HETATM   27  C11 SIA A   4     277.493 250.953 192.422  0.50 19.88     0.100 C 
HETATM   28  O10 SIA A   4     279.885 251.719 192.015  0.50 29.43    -0.271 OA
ENDBRANCH  12  25
ENDBRANCH   8   9
ENDBRANCH   3   8
BRANCH   5  29
HETATM   29  C6  GAL A   1     282.635 261.077 196.980  0.50 30.53     0.214 C 
HETATM   30  O6  GAL A   1     281.344 261.641 196.939  0.50 33.07    -0.218 OA
ENDBRANCH   5  29
BRANCH   4  31
HETATM   31  O4  GAL A   1     282.644 258.537 197.619  0.50 31.21    -0.327 OA
BRANCH  31  32
HETATM   32  C1  NGA A   2     281.691 258.137 198.594  0.50 28.26     0.262 C 
HETATM   33  C2  NGA A   2     282.456 258.286 199.917  0.50 24.34     0.192 C 
HETATM   34  C3  NGA A   2     281.532 257.989 201.050  0.50 23.13     0.178 C 
HETATM   35  C4  NGA A   2     280.245 258.825 200.990  0.50 23.45     0.211 C 
HETATM   36  C5  NGA A   2     279.617 258.562 199.641  0.50 23.37     0.184 C 
HETATM   37  O4  NGA A   2     280.590 260.177 201.173  0.50 26.44    -0.218 OA
HETATM   38  O5  NGA A   2     280.516 258.949 198.606  0.50 27.92    -0.327 OA
BRANCH  33  39
HETATM   39  N2  NGA A   2     283.666 257.507 199.786  0.50 23.90    -0.232 NA
HETATM   40  C7  NGA A   2     284.849 258.057 200.101  0.50 22.89     0.252 C 
HETATM   41  C8  NGA A   2     286.052 257.145 199.838  0.50 21.65     0.100 C 
HETATM   42  O7  NGA A   2     284.843 259.227 200.540  0.50 27.34    -0.271 OA
ENDBRANCH  33  39
BRANCH  34  43
HETATM   43  O3  NGA A   2     282.173 258.306 202.285  0.50 19.58    -0.327 OA
BRANCH  43  44
HETATM   44  C1  GAL A   3     282.510 257.076 202.919  0.50 14.41     0.270 C 
HETATM   45  C2  GAL A   3     283.295 257.392 204.174  0.50 11.27     0.241 C 
HETATM   46  O2  GAL A   3     284.441 258.142 203.825  0.50 11.99    -0.215 OA
HETATM   47  C3  GAL A   3     283.688 256.106 204.883  0.50  9.34     0.220 C 
HETATM   48  O3  GAL A   3     284.268 256.414 206.131  0.50 11.52    -0.218 OA
HETATM   49  C4  GAL A   3     282.502 255.151 204.990  0.50 10.13     0.215 C 
HETATM   50  O4  GAL A   3     281.584 255.707 205.893  0.50  7.87    -0.218 OA
HETATM   51  C5  GAL A   3     281.722 255.002 203.680  0.50 13.15     0.184 C 
HETATM   52  O5  GAL A   3     281.326 256.313 203.196  0.50 13.62    -0.326 OA
BRANCH  51  53
HETATM   53  C6  GAL A   3     280.432 254.200 203.809  0.50 18.07     0.215 C 
HETATM   54  O6  GAL A   3     279.409 254.709 202.978  0.50 13.12    -0.218 OA
ENDBRANCH  51  53
ENDBRANCH  43  44
ENDBRANCH  34  43
BRANCH  36  55
HETATM   55  C6  NGA A   2     278.206 259.058 199.462  0.50 20.58     0.215 C 
HETATM   56  O6  NGA A   2     277.544 258.943 200.701  0.50 30.49    -0.218 OA
ENDBRANCH  36  55
ENDBRANCH  31  32
ENDBRANCH   4  31
TORSDOF 15
ENDMDL
MODEL 9
REMARK VINA RESULT:      -6.1     27.703     32.232
REMARK  15 active torsions:
REMARK  status: ('A' for Active; 'I' for Inactive)
REMARK    1  A    between atoms: C3_3  and  O3_8 
REMARK    2  A    between atoms: C4_4  and  O4_9 
REMARK    3  A    between atoms: C5_5  and  C6_6 
REMARK    4  A    between atoms: O3_8  and  C2_38 
REMARK    5  A    between atoms: O4_9  and  C1_12 
REMARK    6  A    between atoms: C2_13  and  N2_20 
REMARK    7  A    between atoms: C3_14  and  O3_21 
REMARK    8  A    between atoms: C5_16  and  C6_17 
REMARK       I    between atoms: C7_18  and  N2_20 
REMARK    9  A    between atoms: O3_21  and  C1_26 
REMARK   10  A    between atoms: C5_30  and  C6_31 
REMARK   11  A    between atoms: C1_37  and  C2_38 
REMARK   12  A    between atoms: C5_41  and  N5_48 
REMARK   13  A    between atoms: C6_42  and  C7_43 
REMARK   14  A    between atoms: C7_43  and  C8_44 
REMARK   15  A    between atoms: C8_44  and  C9_45 
REMARK       I    between atoms: C10_46  and  N5_48 
ROOT
HETATM    1  C1  GAL A   1     259.225 270.716 213.051  0.50 30.86     0.178 C 
HETATM    2  C2  GAL A   1     260.248 271.771 212.623  0.50 31.03     0.211 C 
HETATM    3  C3  GAL A   1     259.685 273.178 212.646  0.50 28.77     0.181 C 
HETATM    4  C4  GAL A   1     258.337 273.242 211.933  0.50 28.47     0.177 C 
HETATM    5  C5  GAL A   1     257.430 272.101 212.309  0.50 29.35     0.178 C 
HETATM    6  O2  GAL A   1     261.394 271.612 213.439  0.50 30.41    -0.218 OA
HETATM    7  O5  GAL A   1     258.079 270.838 212.208  0.50 30.35    -0.349 OA
ENDROOT
BRANCH   3   8
HETATM    8  O3  GAL A   1     260.522 274.065 211.929  0.50 28.34    -0.324 OA
BRANCH   8   9
HETATM    9  C2  SIA A   4     261.144 275.165 212.556  0.50 28.62     0.271 C 
HETATM   10  O6  SIA A   4     260.605 276.427 212.221  0.50 31.74    -0.325 OA
HETATM   11  C6  SIA A   4     261.235 277.581 212.798  0.50 34.04     0.176 C 
HETATM   12  C5  SIA A   4     261.324 277.508 214.311  0.50 33.06     0.166 C 
HETATM   13  C4  SIA A   4     261.998 276.182 214.668  0.50 31.88     0.182 C 
HETATM   14  C3  SIA A   4     261.149 275.049 214.084  0.50 29.71     0.103 C 
HETATM   15  O4  SIA A   4     262.098 276.050 216.063  0.50 38.09    -0.221 OA
BRANCH   9  16
HETATM   16  C1  SIA A   4     262.613 275.101 212.133  0.50 27.73     0.240 C 
HETATM   17  O1A SIA A   4     263.024 275.891 211.262  0.50 31.28    -0.644 OA
HETATM   18  O1B SIA A   4     263.282 274.218 212.711  0.50 17.68    -0.644 OA
ENDBRANCH   9  16
BRANCH  11  19
HETATM   19  C7  SIA A   4     260.456 278.802 212.311  0.50 33.71     0.214 C 
HETATM   20  O7  SIA A   4     259.079 278.704 212.662  0.50 32.14    -0.218 OA
BRANCH  19  21
HETATM   21  C8  SIA A   4     260.544 278.865 210.782  0.50 34.22     0.218 C 
HETATM   22  O8  SIA A   4     261.877 279.020 210.341  0.50 31.83    -0.218 OA
BRANCH  21  23
HETATM   23  C9  SIA A   4     259.669 280.023 210.316  0.50 33.50     0.218 C 
HETATM   24  O9  SIA A   4     259.327 279.796 208.974  0.50 28.00    -0.218 OA
ENDBRANCH  21  23
ENDBRANCH  19  21
ENDBRANCH  11  19
BRANCH  12  25
HETATM   25  N5  SIA A   4     261.998 278.617 214.944  0.50 34.22    -0.235 NA
HETATM   26  C10 SIA A   4     261.427 279.454 215.811  0.50 33.32     0.252 C 
HETATM   27  C11 SIA A   4     262.382 280.571 216.300  0.50 19.88     0.100 C 
HETATM   28  O10 SIA A   4     260.218 279.252 216.077  0.50 29.43    -0.271 OA
ENDBRANCH  12  25
ENDBRANCH   8   9
ENDBRANCH   3   8
BRANCH   5  29
HETATM   29  C6  GAL A   1     256.241 272.094 211.341  0.50 30.53     0.214 C 
HETATM   30  O6  GAL A   1     255.942 270.773 210.952  0.50 33.07    -0.218 OA
ENDBRANCH   5  29
BRANCH   4  31
HETATM   31  O4  GAL A   1     258.530 273.079 210.539  0.50 31.21    -0.327 OA
BRANCH  31  32
HETATM   32  C1  NGA A   2     258.380 274.266 209.773  0.50 28.26     0.262 C 
HETATM   33  C2  NGA A   2     257.728 273.770 208.474  0.50 24.34     0.192 C 
HETATM   34  C3  NGA A   2     257.419 274.942 207.605  0.50 23.13     0.178 C 
HETATM   35  C4  NGA A   2     256.591 276.009 208.336  0.50 23.45     0.211 C 
HETATM   36  C5  NGA A   2     257.368 276.392 209.574  0.50 23.37     0.184 C 
HETATM   37  O4  NGA A   2     255.331 275.460 208.634  0.50 26.44    -0.218 OA
HETATM   38  O5  NGA A   2     257.552 275.245 210.402  0.50 27.92    -0.327 OA
BRANCH  33  39
HETATM   39  N2  NGA A   2     258.583 272.727 207.954  0.50 23.90    -0.232 NA
HETATM   40  C7  NGA A   2     258.052 271.546 207.601  0.50 22.89     0.252 C 
HETATM   41  C8  NGA A   2     259.082 270.509 207.144  0.50 21.65     0.100 C 
HETATM   42  O7  NGA A   2     256.813 271.417 207.702  0.50 27.34    -0.271 OA
ENDBRANCH  33  39
BRANCH  34  43
HETATM   43  O3  NGA A   2     256.645 274.515 206.484  0.50 19.58    -0.327 OA
BRANCH  43  44
HETATM   44  C1  GAL A   3     257.334 274.924 205.308  0.50 14.41     0.270 C 
HETATM   45  C2  GAL A   3     256.896 274.030 204.168  0.50 11.27     0.241 C 
HETATM   46  O2  GAL A   3     257.170 272.686 204.505  0.50 11.99    -0.215 OA
HETATM   47  C3  GAL A   3     257.615 274.424 202.889  0.50  9.34     0.220 C 
HETATM   48  O3  GAL A   3     257.076 273.700 201.804  0.50 11.52    -0.218 OA
HETATM   49  C4  GAL A   3     257.581 275.935 202.679  0.50 10.13     0.215 C 
HETATM   50  O4  GAL A   3     256.259 276.298 202.387  0.50  7.87    -0.218 OA
HETATM   51  C5  GAL A   3     257.938 276.731 203.939  0.50 13.15     0.184 C 
HETATM   52  O5  GAL A   3     257.086 276.312 205.037  0.50 13.62    -0.326 OA
BRANCH  51  53
HETATM   53  C6  GAL A   3     257.735 278.236 203.805  0.50 18.07     0.215 C 
HETATM   54  O6  GAL A   3     258.947 278.946 203.956  0.50 13.12    -0.218 OA
ENDBRANCH  51  53
ENDBRANCH  43  44
ENDBRANCH  34  43
BRANCH  36  55
HETATM   55  C6  NGA A   2     256.886 277.618 210.304  0.50 20.58     0.215 C 
HETATM   56  O6  NGA A   2     256.145 277.194 211.425  0.50 30.49    -0.218 OA
ENDBRANCH  36  55
ENDBRANCH  31  32
ENDBRANCH   4  31
TORSDOF 15
ENDMDL
