REMARK  15 active torsions:
REMARK  status: ('A' for Active; 'I' for Inactive)
REMARK    1  A    between atoms: C3_3  and  O3_8 
REMARK    2  A    between atoms: C4_4  and  O4_9 
REMARK    3  A    between atoms: C5_5  and  C6_6 
REMARK    4  A    between atoms: O3_8  and  C2_38 
REMARK    5  A    between atoms: O4_9  and  C1_12 
REMARK    6  A    between atoms: C2_13  and  N2_20 
REMARK    7  A    between atoms: C3_14  and  O3_21 
REMARK    8  A    between atoms: C5_16  and  C6_17 
REMARK       I    between atoms: C7_18  and  N2_20 
REMARK    9  A    between atoms: O3_21  and  C1_26 
REMARK   10  A    between atoms: C5_30  and  C6_31 
REMARK   11  A    between atoms: C1_37  and  C2_38 
REMARK   12  A    between atoms: C5_41  and  N5_48 
REMARK   13  A    between atoms: C6_42  and  C7_43 
REMARK   14  A    between atoms: C7_43  and  C8_44 
REMARK   15  A    between atoms: C8_44  and  C9_45 
REMARK       I    between atoms: C10_46  and  N5_48 
ROOT
HETATM    1  C1  GAL A   1     -14.630  19.532  -5.888  0.50 30.86     0.178 C 
HETATM    2  C2  GAL A   1     -15.289  19.527  -4.507  0.50 31.03     0.211 C 
HETATM    3  C3  GAL A   1     -15.050  20.811  -3.738  0.50 28.77     0.181 C 
HETATM    4  C4  GAL A   1     -13.574  21.199  -3.761  0.50 28.47     0.177 C 
HETATM    5  C5  GAL A   1     -12.961  21.058  -5.129  0.50 29.35     0.178 C 
HETATM    6  O2  GAL A   1     -16.661  19.228  -4.688  0.50 30.41    -0.218 OA
HETATM    7  O5  GAL A   1     -13.236  19.791  -5.717  0.50 30.35    -0.349 OA
ENDROOT
BRANCH   3   8
HETATM    8  O3  GAL A   1     -15.364  20.642  -2.369  0.50 28.34    -0.324 OA
BRANCH   8   9
HETATM    9  C2  SIA A   4     -15.991  21.662  -1.622  0.50 28.62     0.271 C 
HETATM   10  O6  SIA A   4     -15.386  22.934  -1.722  0.50 31.74    -0.325 OA
HETATM   11  C6  SIA A   4     -15.961  23.994  -0.943  0.50 34.04     0.176 C 
HETATM   12  C5  SIA A   4     -17.446  24.172  -1.196  0.50 33.06     0.166 C 
HETATM   13  C4  SIA A   4     -18.113  22.811  -0.990  0.50 31.88     0.182 C 
HETATM   14  C3  SIA A   4     -17.475  21.821  -1.969  0.50 29.71     0.103 C 
HETATM   15  O4  SIA A   4     -19.495  22.910  -1.224  0.50 38.09    -0.221 OA
BRANCH   9  16
HETATM   16  C1  SIA A   4     -15.956  21.185  -0.168  0.50 27.73     0.240 C 
HETATM   17  O1A SIA A   4     -14.866  21.172   0.435  0.50 31.28    -0.644 OA
HETATM   18  O1B SIA A   4     -17.063  20.825   0.287  0.50 17.68    -0.644 OA
ENDBRANCH   9  16
BRANCH  11  19
HETATM   19  C7  SIA A   4     -15.155  25.256  -1.248  0.50 33.71     0.214 C 
HETATM   20  O7  SIA A   4     -15.224  25.585  -2.632  0.50 32.14    -0.218 OA
BRANCH  19  21
HETATM   21  C8  SIA A   4     -13.684  24.997  -0.903  0.50 34.22     0.218 C 
HETATM   22  O8  SIA A   4     -13.539  24.449   0.391  0.50 31.83    -0.218 OA
BRANCH  21  23
HETATM   23  C9  SIA A   4     -12.939  26.321  -1.030  0.50 33.50     0.218 C 
HETATM   24  O9  SIA A   4     -11.599  26.101  -0.677  0.50 28.00    -0.218 OA
ENDBRANCH  21  23
ENDBRANCH  19  21
ENDBRANCH  11  19
BRANCH  12  25
HETATM   25  N5  SIA A   4     -18.090  25.189  -0.399  0.50 34.22    -0.235 NA
HETATM   26  C10 SIA A   4     -18.184  26.474  -0.744  0.50 33.32     0.252 C 
HETATM   27  C11 SIA A   4     -18.897  27.342   0.323  0.50 19.88     0.100 C 
HETATM   28  O10 SIA A   4     -17.665  26.804  -1.837  0.50 29.43    -0.271 OA
ENDBRANCH  12  25
ENDBRANCH   8   9
ENDBRANCH   3   8
BRANCH   5  29
HETATM   29  C6  GAL A   1     -11.440  21.188  -4.988  0.50 30.53     0.214 C 
HETATM   30  O6  GAL A   1     -10.855  19.911  -4.874  0.50 33.07    -0.218 OA
ENDBRANCH   5  29
BRANCH   4  31
HETATM   31  O4  GAL A   1     -12.834  20.294  -2.960  0.50 31.21    -0.327 OA
BRANCH  31  32
HETATM   32  C1  NGA A   2     -12.079  20.898  -1.919  0.50 28.26     0.262 C 
HETATM   33  C2  NGA A   2     -11.844  19.742  -0.936  0.50 24.34     0.192 C 
HETATM   34  C3  NGA A   2     -10.967  20.217   0.174  0.50 23.13     0.178 C 
HETATM   35  C4  NGA A   2      -9.669  20.856  -0.340  0.50 23.45     0.211 C 
HETATM   36  C5  NGA A   2     -10.072  21.968  -1.280  0.50 23.37     0.184 C 
HETATM   37  O4  NGA A   2      -8.909  19.857  -0.976  0.50 26.44    -0.218 OA
HETATM   38  O5  NGA A   2     -10.831  21.434  -2.362  0.50 27.92    -0.327 OA
BRANCH  33  39
HETATM   39  N2  NGA A   2     -13.146  19.205  -0.610  0.50 23.90    -0.232 NA
HETATM   40  C7  NGA A   2     -13.368  17.886  -0.720  0.50 22.89     0.252 C 
HETATM   41  C8  NGA A   2     -14.811  17.468  -0.421  0.50 21.65     0.100 C 
HETATM   42  O7  NGA A   2     -12.407  17.166  -1.066  0.50 27.34    -0.271 OA
ENDBRANCH  33  39
BRANCH  34  43
HETATM   43  O3  NGA A   2     -10.588  19.109   0.990  0.50 19.58    -0.327 OA
BRANCH  43  44
HETATM   44  C1  GAL A   3     -10.914  19.439   2.336  0.50 14.41     0.270 C 
HETATM   45  C2  GAL A   3     -10.677  18.214   3.193  0.50 11.27     0.241 C 
HETATM   46  O2  GAL A   3     -11.463  17.148   2.701  0.50 11.99    -0.215 OA
HETATM   47  C3  GAL A   3     -11.022  18.515   4.642  0.50  9.34     0.220 C 
HETATM   48  O3  GAL A   3     -10.639  17.426   5.453  0.50 11.52    -0.218 OA
HETATM   49  C4  GAL A   3     -10.415  19.841   5.090  0.50 10.13     0.215 C 
HETATM   50  O4  GAL A   3      -9.024  19.676   5.155  0.50  7.87    -0.218 OA
HETATM   51  C5  GAL A   3     -10.628  20.977   4.084  0.50 13.15     0.184 C 
HETATM   52  O5  GAL A   3     -10.145  20.568   2.777  0.50 13.62    -0.326 OA
BRANCH  51  53
HETATM   53  C6  GAL A   3      -9.878  22.260   4.422  0.50 18.07     0.215 C 
HETATM   54  O6  GAL A   3     -10.060  23.253   3.434  0.50 13.12    -0.218 OA
ENDBRANCH  51  53
ENDBRANCH  43  44
ENDBRANCH  34  43
BRANCH  36  55
HETATM   55  C6  NGA A   2      -8.975  22.914  -1.693  0.50 20.58     0.215 C 
HETATM   56  O6  NGA A   2      -9.573  24.131  -2.078  0.50 30.49    -0.218 OA
ENDBRANCH  36  55
ENDBRANCH  31  32
ENDBRANCH   4  31
TORSDOF 15
