REMARK  18 active torsions:
REMARK  status: ('A' for Active; 'I' for Inactive)
REMARK    1  A    between atoms: C4_3  and  O4_10 
REMARK    2  A    between atoms: C5_4  and  C6_5 
REMARK    3  A    between atoms: O4_10  and  C1_13 
REMARK    4  A    between atoms: C3_15  and  O3_20 
REMARK    5  A    between atoms: C4_16  and  O4_21 
REMARK    6  A    between atoms: C5_17  and  C6_18 
REMARK    7  A    between atoms: O3_20  and  C2_50 
REMARK    8  A    between atoms: O4_21  and  C1_24 
REMARK    9  A    between atoms: C2_25  and  N2_32 
REMARK   10  A    between atoms: C3_26  and  O3_33 
REMARK   11  A    between atoms: C5_28  and  C6_29 
REMARK       I    between atoms: C7_30  and  N2_32 
REMARK   12  A    between atoms: O3_33  and  C1_38 
REMARK   13  A    between atoms: C5_42  and  C6_43 
REMARK   14  A    between atoms: C1_49  and  C2_50 
REMARK   15  A    between atoms: C5_53  and  N5_60 
REMARK   16  A    between atoms: C6_54  and  C7_55 
REMARK   17  A    between atoms: C7_55  and  C8_56 
REMARK   18  A    between atoms: C8_56  and  C9_57 
REMARK       I    between atoms: C10_58  and  N5_60 
ROOT
HETATM    1  C2  BGC I   1      36.476  45.043  17.847  1.00 21.38     0.244 C 
HETATM    2  C3  BGC I   1      35.132  45.012  17.135  1.00 23.08     0.217 C 
HETATM    3  C4  BGC I   1      34.041  45.292  18.181  1.00 23.78     0.181 C 
HETATM    4  C5  BGC I   1      34.343  46.650  18.810  1.00 23.63     0.181 C 
HETATM    5  C1  BGC I   1      36.718  46.322  18.634  1.00 21.14     0.303 C 
HETATM    6  O1  BGC I   1      37.856  46.157  19.499  1.00 19.41    -0.187 OA
HETATM    7  O2  BGC I   1      37.458  44.826  16.845  1.00 30.88    -0.215 OA
HETATM    8  O3  BGC I   1      34.917  43.757  16.520  1.00 25.83    -0.218 OA
HETATM    9  O5  BGC I   1      35.599  46.541  19.485  1.00 21.93    -0.324 OA
ENDROOT
BRANCH   3  10
HETATM   10  O4  BGC I   1      32.831  45.472  17.455  1.00 24.88    -0.326 OA
BRANCH  10  11
HETATM   11  C1  GAL I   2      31.937  44.363  17.440  1.00 21.60     0.270 C 
HETATM   12  O5  GAL I   2      31.123  44.604  16.293  1.00 21.12    -0.326 OA
HETATM   13  C5  GAL I   2      30.138  43.585  16.040  1.00 19.51     0.180 C 
HETATM   14  C4  GAL I   2      29.130  43.683  17.182  1.00 19.17     0.177 C 
HETATM   15  C3  GAL I   2      29.882  43.343  18.492  1.00 19.53     0.183 C 
HETATM   16  C2  GAL I   2      31.034  44.360  18.660  1.00 22.15     0.238 C 
HETATM   17  O2  GAL I   2      31.807  43.978  19.796  1.00 22.38    -0.215 OA
BRANCH  13  18
HETATM   18  C6  GAL I   2      29.494  43.898  14.698  1.00 21.72     0.214 C 
HETATM   19  O6  GAL I   2      30.420  43.995  13.614  1.00 21.52    -0.218 OA
ENDBRANCH  13  18
BRANCH  14  20
HETATM   20  O4  GAL I   2      28.667  45.027  17.286  1.00 17.56    -0.327 OA
BRANCH  20  21
HETATM   21  C1  NGA I   3      27.270  45.266  17.346  1.00 20.79     0.262 C 
HETATM   22  C2  NGA I   3      26.963  46.559  18.116  1.00 19.16     0.192 C 
HETATM   23  C3  NGA I   3      25.443  46.668  18.147  1.00 17.33     0.178 C 
HETATM   24  C4  NGA I   3      24.822  46.585  16.740  1.00 17.75     0.211 C 
HETATM   25  C5  NGA I   3      25.247  45.329  16.024  1.00 18.50     0.184 C 
HETATM   26  O4  NGA I   3      25.160  47.775  16.036  1.00 21.37    -0.218 OA
HETATM   27  O5  NGA I   3      26.689  45.304  16.038  1.00 18.52    -0.327 OA
BRANCH  22  28
HETATM   28  N2  NGA I   3      27.593  46.425  19.422  1.00 18.63    -0.232 NA
HETATM   29  C7  NGA I   3      28.497  47.269  19.891  1.00 18.81     0.252 C 
HETATM   30  C8  NGA I   3      29.152  46.780  21.183  1.00 18.13     0.100 C 
HETATM   31  O7  NGA I   3      28.835  48.328  19.275  1.00 18.42    -0.271 OA
ENDBRANCH  22  28
BRANCH  23  32
HETATM   32  O3  NGA I   3      25.131  47.946  18.712  1.00 16.00    -0.327 OA
BRANCH  32  33
HETATM   33  C1  GAL I   4      24.274  47.818  19.810  1.00 13.84     0.270 C 
HETATM   34  C2  GAL I   4      24.181  49.167  20.496  1.00 11.13     0.241 C 
HETATM   35  O2  GAL I   4      25.467  49.561  20.990  1.00 11.75    -0.215 OA
HETATM   36  C3  GAL I   4      23.197  49.076  21.641  1.00 10.40     0.220 C 
HETATM   37  O3  GAL I   4      23.028  50.364  22.196  1.00 10.96    -0.218 OA
HETATM   38  C4  GAL I   4      21.827  48.598  21.091  1.00 10.48     0.215 C 
HETATM   39  O4  GAL I   4      21.270  49.559  20.250  1.00 10.75    -0.218 OA
HETATM   40  C5  GAL I   4      22.030  47.300  20.322  1.00 11.91     0.184 C 
HETATM   41  O5  GAL I   4      22.982  47.471  19.252  1.00 12.52    -0.326 OA
BRANCH  40  42
HETATM   42  C6  GAL I   4      20.754  46.844  19.617  1.00 12.85     0.215 C 
HETATM   43  O6  GAL I   4      20.907  45.567  18.998  1.00 14.53    -0.218 OA
ENDBRANCH  40  42
ENDBRANCH  32  33
ENDBRANCH  23  32
BRANCH  25  44
HETATM   44  C6  NGA I   3      24.806  45.113  14.600  1.00 24.09     0.215 C 
HETATM   45  O6  NGA I   3      23.414  45.285  14.404  1.00 34.45    -0.218 OA
ENDBRANCH  25  44
ENDBRANCH  20  21
ENDBRANCH  14  20
BRANCH  15  46
HETATM   46  O3  GAL I   2      28.988  43.586  19.566  1.00 19.83    -0.324 OA
BRANCH  46  47
HETATM   47  C2  SIA I   5      28.367  42.540  20.309  1.00 19.70     0.271 C 
HETATM   48  C3  SIA I   5      29.301  41.584  20.992  1.00 21.90     0.103 C 
HETATM   49  C4  SIA I   5      28.604  40.392  21.613  1.00 21.98     0.182 C 
HETATM   50  O4  SIA I   5      29.558  39.378  21.949  1.00 23.39    -0.221 OA
HETATM   51  C5  SIA I   5      27.554  39.775  20.677  1.00 21.56     0.166 C 
HETATM   52  C6  SIA I   5      26.661  40.848  20.063  1.00 20.61     0.176 C 
HETATM   53  O6  SIA I   5      27.502  41.834  19.441  1.00 21.33    -0.325 OA
BRANCH  47  54
HETATM   54  C1  SIA I   5      27.511  43.232  21.371  1.00 22.23     0.240 C 
HETATM   55  O1A SIA I   5      26.514  43.896  20.927  1.00 17.82    -0.644 OA
HETATM   56  O1B SIA I   5      27.886  43.109  22.558  1.00 18.18    -0.644 OA
ENDBRANCH  47  54
BRANCH  51  57
HETATM   57  N5  SIA I   5      26.816  38.789  21.470  1.00 19.98    -0.235 NA
HETATM   58  C10 SIA I   5      26.286  37.670  20.959  1.00 19.62     0.252 C 
HETATM   59  O10 SIA I   5      26.383  37.389  19.734  1.00 24.06    -0.271 OA
HETATM   60  C11 SIA I   5      25.576  36.766  21.983  1.00 17.86     0.100 C 
ENDBRANCH  51  57
BRANCH  52  61
HETATM   61  C7  SIA I   5      25.698  40.348  18.969  1.00 20.48     0.214 C 
HETATM   62  O7  SIA I   5      26.408  39.571  17.967  1.00 18.83    -0.218 OA
BRANCH  61  63
HETATM   63  C8  SIA I   5      25.193  41.585  18.199  1.00 17.95     0.218 C 
HETATM   64  O8  SIA I   5      24.688  42.514  19.134  1.00 17.57    -0.218 OA
BRANCH  63  65
HETATM   65  C9  SIA I   5      24.025  41.147  17.309  1.00 20.07     0.218 C 
HETATM   66  O9  SIA I   5      23.681  42.116  16.365  1.00 23.55    -0.218 OA
ENDBRANCH  63  65
ENDBRANCH  61  63
ENDBRANCH  52  61
ENDBRANCH  46  47
ENDBRANCH  15  46
ENDBRANCH  10  11
ENDBRANCH   3  10
BRANCH   4  67
HETATM   67  C6  BGC I   1      33.264  47.089  19.798  1.00 22.08     0.214 C 
HETATM   68  O6  BGC I   1      33.113  46.194  20.867  1.00 27.97    -0.218 OA
ENDBRANCH   4  67
TORSDOF 18
