REMARK  18 active torsions:
REMARK  status: ('A' for Active; 'I' for Inactive)
REMARK    1  A    between atoms: C4_3  and  O4_10 
REMARK    2  A    between atoms: C5_4  and  C6_5 
REMARK    3  A    between atoms: O4_10  and  C1_13 
REMARK    4  A    between atoms: C3_15  and  O3_20 
REMARK    5  A    between atoms: C4_16  and  O4_21 
REMARK    6  A    between atoms: C5_17  and  C6_18 
REMARK    7  A    between atoms: O3_20  and  C2_50 
REMARK    8  A    between atoms: O4_21  and  C1_24 
REMARK    9  A    between atoms: C2_25  and  N2_32 
REMARK   10  A    between atoms: C3_26  and  O3_33 
REMARK   11  A    between atoms: C5_28  and  C6_29 
REMARK       I    between atoms: C7_30  and  N2_32 
REMARK   12  A    between atoms: O3_33  and  C1_38 
REMARK   13  A    between atoms: C5_42  and  C6_43 
REMARK   14  A    between atoms: C1_49  and  C2_50 
REMARK   15  A    between atoms: C5_53  and  N5_60 
REMARK   16  A    between atoms: C6_54  and  C7_55 
REMARK   17  A    between atoms: C7_55  and  C8_56 
REMARK   18  A    between atoms: C8_56  and  C9_57 
REMARK       I    between atoms: C10_58  and  N5_60 
ROOT
HETATM    1  C2  BGC J   1      19.524   8.945   9.345  1.00 33.73     0.244 C 
HETATM    2  C3  BGC J   1      19.054  10.378   9.133  1.00 34.22     0.217 C 
HETATM    3  C4  BGC J   1      18.481  10.948  10.441  1.00 35.62     0.181 C 
HETATM    4  C5  BGC J   1      19.534  10.827  11.536  1.00 33.72     0.181 C 
HETATM    5  C1  BGC J   1      20.440   8.751  10.543  1.00 35.29     0.303 C 
HETATM    6  O1  BGC J   1      20.566   7.377  10.934  1.00 22.52    -0.187 OA
HETATM    7  O2  BGC J   1      20.154   8.443   8.175  1.00 40.75    -0.215 OA
HETATM    8  O3  BGC J   1      18.034  10.422   8.126  1.00 32.08    -0.218 OA
HETATM    9  O5  BGC J   1      20.036   9.518  11.655  1.00 36.77    -0.324 OA
ENDROOT
BRANCH   3  10
HETATM   10  O4  BGC J   1      18.248  12.336  10.256  1.00 33.55    -0.326 OA
BRANCH  10  11
HETATM   11  C1  GAL J   2      16.936  12.809   9.954  1.00 29.50     0.270 C 
HETATM   12  C2  GAL J   2      16.163  13.042  11.228  1.00 27.02     0.238 C 
HETATM   13  C3  GAL J   2      14.890  13.876  11.011  1.00 23.05     0.183 C 
HETATM   14  O2  GAL J   2      15.743  11.789  11.753  1.00 31.87    -0.215 OA
HETATM   15  C4  GAL J   2      15.277  15.150  10.259  1.00 23.22     0.177 C 
HETATM   16  C5  GAL J   2      15.987  14.785   8.960  1.00 24.62     0.180 C 
HETATM   17  O5  GAL J   2      17.173  14.069   9.319  1.00 30.39    -0.326 OA
BRANCH  13  18
HETATM   18  O3  GAL J   2      14.462  14.239  12.329  1.00 25.06    -0.324 OA
BRANCH  18  19
HETATM   19  C2  SIA J   5      13.076  14.187  12.600  1.00 22.94     0.271 C 
HETATM   20  C3  SIA J   5      12.476  12.805  12.500  1.00 25.74     0.103 C 
HETATM   21  C4  SIA J   5      10.991  12.824  12.858  1.00 26.04     0.182 C 
HETATM   22  C5  SIA J   5      10.247  13.850  11.977  1.00 24.75     0.166 C 
HETATM   23  O4  SIA J   5      10.455  11.551  12.460  1.00 26.63    -0.221 OA
HETATM   24  C6  SIA J   5      10.959  15.192  12.109  1.00 22.50     0.176 C 
HETATM   25  O6  SIA J   5      12.359  15.069  11.726  1.00 22.65    -0.325 OA
BRANCH  19  26
HETATM   26  C1  SIA J   5      12.950  14.697  14.029  1.00 25.20     0.240 C 
HETATM   27  O1A SIA J   5      13.099  15.936  14.153  1.00 24.36    -0.644 OA
HETATM   28  O1B SIA J   5      12.762  13.851  14.932  1.00 23.37    -0.644 OA
ENDBRANCH  19  26
BRANCH  22  29
HETATM   29  N5  SIA J   5       8.860  13.859  12.415  1.00 21.56    -0.235 NA
HETATM   30  C10 SIA J   5       7.810  14.230  11.685  1.00 23.49     0.252 C 
HETATM   31  O10 SIA J   5       7.980  14.636  10.502  1.00 26.49    -0.271 OA
HETATM   32  C11 SIA J   5       6.501  14.140  12.473  1.00 20.70     0.100 C 
ENDBRANCH  22  29
BRANCH  24  33
HETATM   33  C7  SIA J   5      10.338  16.267  11.219  1.00 23.24     0.214 C 
HETATM   34  O7  SIA J   5      10.169  15.830   9.858  1.00 24.21    -0.218 OA
BRANCH  33  35
HETATM   35  C8  SIA J   5      11.280  17.466  11.258  1.00 24.66     0.218 C 
HETATM   36  O8  SIA J   5      11.589  17.745  12.606  1.00 20.98    -0.218 OA
BRANCH  35  37
HETATM   37  C9  SIA J   5      10.629  18.638  10.552  1.00 22.69     0.218 C 
HETATM   38  O9  SIA J   5      11.532  19.700  10.266  1.00 26.43    -0.218 OA
ENDBRANCH  35  37
ENDBRANCH  33  35
ENDBRANCH  24  33
ENDBRANCH  18  19
ENDBRANCH  13  18
BRANCH  15  39
HETATM   39  O4  GAL J   2      16.194  15.923  11.022  1.00 22.03    -0.327 OA
BRANCH  39  40
HETATM   40  C1  NGA J   3      15.644  17.130  11.515  1.00 22.91     0.262 C 
HETATM   41  C2  NGA J   3      16.380  17.472  12.817  1.00 21.55     0.192 C 
HETATM   42  C3  NGA J   3      15.938  18.823  13.283  1.00 19.57     0.178 C 
HETATM   43  C4  NGA J   3      16.007  19.911  12.210  1.00 18.76     0.211 C 
HETATM   44  C5  NGA J   3      15.272  19.430  10.975  1.00 22.49     0.184 C 
HETATM   45  O4  NGA J   3      17.353  20.259  11.939  1.00 22.74    -0.218 OA
HETATM   46  O5  NGA J   3      15.848  18.179  10.561  1.00 25.46    -0.327 OA
BRANCH  41  47
HETATM   47  N2  NGA J   3      16.165  16.327  13.683  1.00 24.00    -0.232 NA
HETATM   48  C7  NGA J   3      17.192  15.636  14.221  1.00 26.74     0.252 C 
HETATM   49  C8  NGA J   3      16.675  14.390  14.943  1.00 22.43     0.100 C 
HETATM   50  O7  NGA J   3      18.399  15.990  14.058  1.00 22.79    -0.271 OA
ENDBRANCH  41  47
BRANCH  42  51
HETATM   51  O3  NGA J   3      16.660  19.247  14.427  1.00 17.99    -0.327 OA
BRANCH  51  52
HETATM   52  C1  GAL J   4      15.845  19.479  15.554  1.00 14.14     0.270 C 
HETATM   53  C2  GAL J   4      16.744  19.703  16.750  1.00 12.92     0.241 C 
HETATM   54  C3  GAL J   4      15.938  20.057  17.994  1.00 11.17     0.220 C 
HETATM   55  O2  GAL J   4      17.571  18.586  17.003  1.00 13.46    -0.215 OA
HETATM   56  C4  GAL J   4      15.047  21.253  17.651  1.00 11.62     0.215 C 
HETATM   57  O3  GAL J   4      16.820  20.375  19.045  1.00 11.38    -0.218 OA
HETATM   58  O4  GAL J   4      15.844  22.417  17.480  1.00 11.09    -0.218 OA
HETATM   59  C5  GAL J   4      14.239  20.979  16.396  1.00 12.47     0.184 C 
HETATM   60  O5  GAL J   4      15.138  20.707  15.316  1.00 13.45    -0.326 OA
BRANCH  59  61
HETATM   61  C6  GAL J   4      13.461  22.183  15.924  1.00 11.95     0.215 C 
HETATM   62  O6  GAL J   4      12.618  21.919  14.822  1.00 15.73    -0.218 OA
ENDBRANCH  59  61
ENDBRANCH  51  52
ENDBRANCH  42  51
BRANCH  44  63
HETATM   63  C6  NGA J   3      15.314  20.429   9.843  1.00 23.49     0.215 C 
HETATM   64  O6  NGA J   3      15.483  19.802   8.595  1.00 36.93    -0.218 OA
ENDBRANCH  44  63
ENDBRANCH  39  40
ENDBRANCH  15  39
BRANCH  16  65
HETATM   65  C6  GAL J   2      16.412  16.062   8.212  1.00 29.12     0.214 C 
HETATM   66  O6  GAL J   2      16.864  15.723   6.900  1.00 34.44    -0.218 OA
ENDBRANCH  16  65
ENDBRANCH  10  11
ENDBRANCH   3  10
BRANCH   4  67
HETATM   67  C6  BGC J   1      19.165  11.437  12.894  1.00 30.61     0.214 C 
HETATM   68  O6  BGC J   1      18.007  10.875  13.446  1.00 38.23    -0.218 OA
ENDBRANCH   4  67
TORSDOF 18
