MODEL 1
REMARK VINA RESULT:      -6.4      0.000      0.000
REMARK  18 active torsions:
REMARK  status: ('A' for Active; 'I' for Inactive)
REMARK    1  A    between atoms: C4_4162  and  O4_4169 
REMARK    2  A    between atoms: C5_4163  and  C6_4164 
REMARK    3  A    between atoms: O4_4169  and  C1_4172 
REMARK    4  A    between atoms: C3_4174  and  O3_4179 
REMARK    5  A    between atoms: C4_4175  and  O4_4180 
REMARK    6  A    between atoms: C5_4176  and  C6_4177 
REMARK    7  A    between atoms: O3_4179  and  C2_4209 
REMARK    8  A    between atoms: O4_4180  and  C1_4183 
REMARK    9  A    between atoms: C2_4184  and  N2_4191 
REMARK   10  A    between atoms: C3_4185  and  O3_4192 
REMARK   11  A    between atoms: C5_4187  and  C6_4188 
REMARK       I    between atoms: C7_4189  and  N2_4191 
REMARK   12  A    between atoms: O3_4192  and  C1_4197 
REMARK   13  A    between atoms: C5_4201  and  C6_4202 
REMARK   14  A    between atoms: C1_4208  and  C2_4209 
REMARK   15  A    between atoms: C5_4212  and  N5_4219 
REMARK   16  A    between atoms: C6_4213  and  C7_4214 
REMARK   17  A    between atoms: C7_4214  and  C8_4215 
REMARK   18  A    between atoms: C8_4215  and  C9_4216 
REMARK       I    between atoms: C10_4217  and  N5_4219 
ROOT
HETATM    1  C2  BGC B   1     286.666 273.830 201.201  1.00 23.00     0.244 C 
HETATM    2  C3  BGC B   1     285.964 272.529 200.842  1.00 22.71     0.217 C 
HETATM    3  C4  BGC B   1     286.140 271.536 202.005  1.00 19.49     0.181 C 
HETATM    4  C5  BGC B   1     285.571 272.181 203.280  1.00 21.23     0.181 C 
HETATM    5  C1  BGC B   1     286.090 274.375 202.516  1.00 23.10     0.303 C 
HETATM    6  O1  BGC B   1     286.849 275.518 202.907  1.00 30.29    -0.187 OA
HETATM    7  O2  BGC B   1     286.584 274.827 200.194  1.00 24.46    -0.215 OA
HETATM    8  O3  BGC B   1     286.477 272.013 199.628  1.00 20.09    -0.218 OA
HETATM    9  O5  BGC B   1     286.334 273.371 203.510  1.00 23.03    -0.324 OA
ENDROOT
BRANCH   3  10
HETATM   10  O4  BGC B   1     285.389 270.352 201.705  1.00 18.81    -0.326 OA
BRANCH  10  11
HETATM   11  C1  GAL B   2     285.972 269.109 202.072  1.00 18.29     0.270 C 
HETATM   12  C2  GAL B   2     284.885 268.140 202.405  1.00 21.36     0.238 C 
HETATM   13  C3  GAL B   2     285.406 266.717 202.577  1.00 18.89     0.183 C 
HETATM   14  O2  GAL B   2     284.190 268.568 203.562  1.00 21.67    -0.215 OA
HETATM   15  C4  GAL B   2     286.342 266.315 201.433  1.00 18.64     0.177 C 
HETATM   16  C5  GAL B   2     287.423 267.374 201.278  1.00 18.34     0.180 C 
HETATM   17  O5  GAL B   2     286.775 268.637 200.996  1.00 18.97    -0.326 OA
BRANCH  13  18
HETATM   18  O3  GAL B   2     284.232 265.917 202.612  1.00 18.86    -0.324 OA
BRANCH  18  19
HETATM   19  C2  SIA B   5     284.022 265.110 203.760  1.00 20.42     0.271 C 
HETATM   20  C3  SIA B   5     282.733 265.389 204.486  1.00 21.15     0.103 C 
HETATM   21  C4  SIA B   5     282.602 264.496 205.729  1.00 19.84     0.182 C 
HETATM   22  C5  SIA B   5     283.871 264.582 206.598  1.00 19.94     0.166 C 
HETATM   23  O4  SIA B   5     281.526 265.029 206.522  1.00 25.26    -0.221 OA
HETATM   24  C6  SIA B   5     285.103 264.329 205.750  1.00 20.62     0.176 C 
HETATM   25  O6  SIA B   5     285.154 265.255 204.623  1.00 20.84    -0.325 OA
BRANCH  19  26
HETATM   26  C1  SIA B   5     284.024 263.695 203.208  1.00 20.04     0.240 C 
HETATM   27  O1A SIA B   5     282.916 263.250 202.839  1.00 18.86    -0.644 OA
HETATM   28  O1B SIA B   5     285.100 263.055 203.199  1.00 20.53    -0.644 OA
ENDBRANCH  19  26
BRANCH  22  29
HETATM   29  N5  SIA B   5     283.747 263.722 207.757  1.00 20.57    -0.235 NA
HETATM   30  C10 SIA B   5     283.525 264.108 209.031  1.00 24.13     0.252 C 
HETATM   31  C11 SIA B   5     283.415 262.914 210.009  1.00 22.96     0.100 C 
HETATM   32  O10 SIA B   5     283.395 265.323 209.364  1.00 26.68    -0.271 OA
ENDBRANCH  22  29
BRANCH  24  33
HETATM   33  C7  SIA B   5     286.432 264.506 206.471  1.00 19.74     0.214 C 
HETATM   34  O7  SIA B   5     286.483 265.705 207.254  1.00 22.57    -0.218 OA
BRANCH  33  35
HETATM   35  C8  SIA B   5     287.519 264.607 205.364  1.00 19.54     0.218 C 
HETATM   36  O8  SIA B   5     287.984 263.306 205.079  1.00 19.73    -0.218 OA
BRANCH  35  37
HETATM   37  C9  SIA B   5     288.678 265.390 205.954  1.00 20.72     0.218 C 
HETATM   38  O9  SIA B   5     289.782 265.501 205.093  1.00 21.01    -0.218 OA
ENDBRANCH  35  37
ENDBRANCH  33  35
ENDBRANCH  24  33
ENDBRANCH  18  19
ENDBRANCH  13  18
BRANCH  15  39
HETATM   39  O4  GAL B   2     285.544 266.274 200.241  1.00 21.34    -0.327 OA
BRANCH  39  40
HETATM   40  C1  NGA B   3     285.349 264.924 199.791  1.00 19.80     0.262 C 
HETATM   41  C2  NGA B   3     284.030 264.834 198.999  1.00 20.60     0.192 C 
HETATM   42  C3  NGA B   3     283.878 263.437 198.400  1.00 18.92     0.178 C 
HETATM   43  C4  NGA B   3     285.117 263.081 197.582  1.00 18.56     0.211 C 
HETATM   44  C5  NGA B   3     286.361 263.284 198.454  1.00 20.83     0.184 C 
HETATM   45  O4  NGA B   3     285.236 263.878 196.413  1.00 25.94    -0.218 OA
HETATM   46  O5  NGA B   3     286.433 264.665 198.874  1.00 19.30    -0.327 OA
BRANCH  41  47
HETATM   47  N2  NGA B   3     282.986 265.197 199.962  1.00 20.03    -0.232 NA
HETATM   48  C7  NGA B   3     282.025 266.112 199.720  1.00 20.86     0.252 C 
HETATM   49  C8  NGA B   3     281.133 266.440 200.933  1.00 25.36     0.100 C 
HETATM   50  O7  NGA B   3     281.939 266.666 198.607  1.00 33.51    -0.271 OA
ENDBRANCH  41  47
BRANCH  42  51
HETATM   51  O3  NGA B   3     282.711 263.365 197.548  1.00 18.48    -0.327 OA
BRANCH  51  52
HETATM   52  C1  GAL B   4     281.771 262.361 197.891  1.00 17.31     0.270 C 
HETATM   53  C2  GAL B   4     282.341 260.957 197.746  1.00 14.28     0.241 C 
HETATM   54  C3  GAL B   4     281.331 259.898 198.164  1.00 14.14     0.220 C 
HETATM   55  O2  GAL B   4     282.694 260.726 196.385  1.00 16.82    -0.215 OA
HETATM   56  C4  GAL B   4     280.808 260.204 199.558  1.00 13.05     0.215 C 
HETATM   57  O3  GAL B   4     281.906 258.608 198.103  1.00 14.59    -0.218 OA
HETATM   58  C5  GAL B   4     280.365 261.659 199.651  1.00 15.75     0.184 C 
HETATM   59  O4  GAL B   4     281.819 259.897 200.511  1.00 13.46    -0.218 OA
HETATM   60  O5  GAL B   4     281.394 262.584 199.263  1.00 16.29    -0.326 OA
BRANCH  58  61
HETATM   61  C6  GAL B   4     279.879 262.023 201.058  1.00 16.07     0.215 C 
HETATM   62  O6  GAL B   4     278.486 261.842 201.253  1.00 17.63    -0.218 OA
ENDBRANCH  58  61
ENDBRANCH  51  52
ENDBRANCH  42  51
BRANCH  44  63
HETATM   63  C6  NGA B   3     287.646 262.962 197.676  1.00 23.22     0.215 C 
HETATM   64  O6  NGA B   3     288.575 264.016 197.869  1.00 34.06    -0.218 OA
ENDBRANCH  44  63
ENDBRANCH  39  40
ENDBRANCH  15  39
BRANCH  16  65
HETATM   65  C6  GAL B   2     288.442 267.125 200.210  1.00 20.92     0.214 C 
HETATM   66  O6  GAL B   2     288.156 267.865 199.021  1.00 21.47    -0.218 OA
ENDBRANCH  16  65
ENDBRANCH  10  11
ENDBRANCH   3  10
BRANCH   4  67
HETATM   67  C6  BGC B   1     285.819 271.280 204.498  1.00 24.07     0.214 C 
HETATM   68  O6  BGC B   1     284.822 271.568 205.515  1.00 26.88    -0.218 OA
ENDBRANCH   4  67
TORSDOF 18
ENDMDL
MODEL 2
REMARK VINA RESULT:      -6.2      2.078      9.716
REMARK  18 active torsions:
REMARK  status: ('A' for Active; 'I' for Inactive)
REMARK    1  A    between atoms: C4_4162  and  O4_4169 
REMARK    2  A    between atoms: C5_4163  and  C6_4164 
REMARK    3  A    between atoms: O4_4169  and  C1_4172 
REMARK    4  A    between atoms: C3_4174  and  O3_4179 
REMARK    5  A    between atoms: C4_4175  and  O4_4180 
REMARK    6  A    between atoms: C5_4176  and  C6_4177 
REMARK    7  A    between atoms: O3_4179  and  C2_4209 
REMARK    8  A    between atoms: O4_4180  and  C1_4183 
REMARK    9  A    between atoms: C2_4184  and  N2_4191 
REMARK   10  A    between atoms: C3_4185  and  O3_4192 
REMARK   11  A    between atoms: C5_4187  and  C6_4188 
REMARK       I    between atoms: C7_4189  and  N2_4191 
REMARK   12  A    between atoms: O3_4192  and  C1_4197 
REMARK   13  A    between atoms: C5_4201  and  C6_4202 
REMARK   14  A    between atoms: C1_4208  and  C2_4209 
REMARK   15  A    between atoms: C5_4212  and  N5_4219 
REMARK   16  A    between atoms: C6_4213  and  C7_4214 
REMARK   17  A    between atoms: C7_4214  and  C8_4215 
REMARK   18  A    between atoms: C8_4215  and  C9_4216 
REMARK       I    between atoms: C10_4217  and  N5_4219 
ROOT
HETATM    1  C2  BGC B   1     283.498 263.965 209.042  1.00 23.00     0.244 C 
HETATM    2  C3  BGC B   1     282.847 263.979 207.667  1.00 22.71     0.217 C 
HETATM    3  C4  BGC B   1     283.382 262.785 206.856  1.00 19.49     0.181 C 
HETATM    4  C5  BGC B   1     283.080 261.496 207.638  1.00 21.23     0.181 C 
HETATM    5  C1  BGC B   1     283.208 262.624 209.731  1.00 23.10     0.303 C 
HETATM    6  O1  BGC B   1     283.935 262.574 210.957  1.00 30.29    -0.187 OA
HETATM    7  O2  BGC B   1     283.092 265.033 209.884  1.00 24.46    -0.215 OA
HETATM    8  O3  BGC B   1     283.099 265.210 207.018  1.00 20.09    -0.218 OA
HETATM    9  O5  BGC B   1     283.769 261.608 208.889  1.00 23.03    -0.324 OA
ENDROOT
BRANCH   3  10
HETATM   10  O4  BGC B   1     282.687 262.745 205.602  1.00 18.81    -0.326 OA
BRANCH  10  11
HETATM   11  C1  GAL B   2     283.481 262.798 204.424  1.00 18.29     0.270 C 
HETATM   12  C2  GAL B   2     282.618 263.200 203.272  1.00 21.36     0.238 C 
HETATM   13  C3  GAL B   2     283.429 263.516 202.020  1.00 18.89     0.183 C 
HETATM   14  O2  GAL B   2     281.654 262.196 203.013  1.00 21.67    -0.215 OA
HETATM   15  C4  GAL B   2     284.613 264.434 202.330  1.00 18.64     0.177 C 
HETATM   16  C5  GAL B   2     285.419 263.841 203.475  1.00 18.34     0.180 C 
HETATM   17  O5  GAL B   2     284.544 263.723 204.622  1.00 18.97    -0.326 OA
BRANCH  13  18
HETATM   18  O3  GAL B   2     282.493 264.129 201.143  1.00 18.86    -0.324 OA
BRANCH  18  19
HETATM   19  C2  SIA B   5     282.286 263.522 199.877  1.00 20.42     0.271 C 
HETATM   20  C3  SIA B   5     281.160 262.524 199.845  1.00 21.15     0.103 C 
HETATM   21  C4  SIA B   5     281.027 261.895 198.450  1.00 19.84     0.182 C 
HETATM   22  C5  SIA B   5     282.386 261.361 197.960  1.00 19.94     0.166 C 
HETATM   23  O4  SIA B   5     280.160 260.754 198.580  1.00 25.26    -0.221 OA
HETATM   24  C6  SIA B   5     283.446 262.440 198.083  1.00 20.62     0.176 C 
HETATM   25  O6  SIA B   5     283.520 262.938 199.452  1.00 20.84    -0.325 OA
BRANCH  19  26
HETATM   26  C1  SIA B   5     281.977 264.698 198.965  1.00 20.04     0.240 C 
HETATM   27  O1A SIA B   5     282.715 265.698 199.091  1.00 18.86    -0.644 OA
HETATM   28  O1B SIA B   5     280.994 264.616 198.193  1.00 20.53    -0.644 OA
ENDBRANCH  19  26
BRANCH  22  29
HETATM   29  N5  SIA B   5     282.255 260.789 196.636  1.00 20.57    -0.235 NA
HETATM   30  C10 SIA B   5     282.614 259.546 196.253  1.00 24.13     0.252 C 
HETATM   31  C11 SIA B   5     282.296 259.262 194.765  1.00 22.96     0.100 C 
HETATM   32  O10 SIA B   5     283.128 258.707 197.049  1.00 26.68    -0.271 OA
ENDBRANCH  22  29
BRANCH  24  33
HETATM   33  C7  SIA B   5     284.862 261.997 197.742  1.00 19.74     0.214 C 
HETATM   34  O7  SIA B   5     285.508 261.323 198.829  1.00 22.57    -0.218 OA
BRANCH  33  35
HETATM   35  C8  SIA B   5     285.662 263.294 197.435  1.00 19.54     0.218 C 
HETATM   36  O8  SIA B   5     284.872 264.115 196.604  1.00 19.73    -0.218 OA
BRANCH  35  37
HETATM   37  C9  SIA B   5     286.887 262.878 196.640  1.00 20.72     0.218 C 
HETATM   38  O9  SIA B   5     286.603 262.522 195.311  1.00 21.01    -0.218 OA
ENDBRANCH  35  37
ENDBRANCH  33  35
ENDBRANCH  24  33
ENDBRANCH  18  19
ENDBRANCH  13  18
BRANCH  15  39
HETATM   39  O4  GAL B   2     284.064 265.696 202.740  1.00 21.34    -0.327 OA
BRANCH  39  40
HETATM   40  C1  NGA B   3     284.467 266.752 201.854  1.00 19.80     0.262 C 
HETATM   41  C2  NGA B   3     285.079 267.903 202.676  1.00 20.60     0.192 C 
HETATM   42  C3  NGA B   3     285.635 268.973 201.737  1.00 18.92     0.178 C 
HETATM   43  C4  NGA B   3     286.604 268.342 200.741  1.00 18.56     0.211 C 
HETATM   44  C5  NGA B   3     285.905 267.166 200.048  1.00 20.83     0.184 C 
HETATM   45  O4  NGA B   3     287.788 267.870 201.367  1.00 25.94    -0.218 OA
HETATM   46  O5  NGA B   3     285.515 266.188 201.037  1.00 19.30    -0.327 OA
BRANCH  41  47
HETATM   47  N2  NGA B   3     283.992 268.366 203.544  1.00 20.03    -0.232 NA
HETATM   48  C7  NGA B   3     283.995 268.234 204.887  1.00 20.86     0.252 C 
HETATM   49  C8  NGA B   3     282.680 268.652 205.574  1.00 25.36     0.100 C 
HETATM   50  O7  NGA B   3     284.981 267.752 205.478  1.00 33.51    -0.271 OA
ENDBRANCH  41  47
BRANCH  42  51
HETATM   51  O3  NGA B   3     286.326 270.003 202.481  1.00 18.48    -0.327 OA
BRANCH  51  52
HETATM   52  C1  GAL B   4     285.923 271.331 202.197  1.00 17.31     0.270 C 
HETATM   53  C2  GAL B   4     286.563 272.346 203.133  1.00 14.28     0.241 C 
HETATM   54  C3  GAL B   4     286.153 273.769 202.780  1.00 14.14     0.220 C 
HETATM   55  O2  GAL B   4     286.153 272.082 204.472  1.00 16.82    -0.215 OA
HETATM   56  C4  GAL B   4     286.429 274.036 201.309  1.00 13.05     0.215 C 
HETATM   57  O3  GAL B   4     286.823 274.701 203.605  1.00 14.59    -0.218 OA
HETATM   58  C5  GAL B   4     285.856 272.916 200.450  1.00 15.75     0.184 C 
HETATM   59  O4  GAL B   4     287.832 274.184 201.119  1.00 13.46    -0.218 OA
HETATM   60  O5  GAL B   4     286.321 271.615 200.842  1.00 16.29    -0.326 OA
BRANCH  58  61
HETATM   61  C6  GAL B   4     286.158 273.122 198.962  1.00 16.07     0.215 C 
HETATM   62  O6  GAL B   4     285.128 272.675 198.095  1.00 17.63    -0.218 OA
ENDBRANCH  58  61
ENDBRANCH  51  52
ENDBRANCH  42  51
BRANCH  44  63
HETATM   63  C6  NGA B   3     286.840 266.474 199.045  1.00 23.22     0.215 C 
HETATM   64  O6  NGA B   3     287.366 265.301 199.644  1.00 34.06    -0.218 OA
ENDBRANCH  44  63
ENDBRANCH  39  40
ENDBRANCH  15  39
BRANCH  16  65
HETATM   65  C6  GAL B   2     286.634 264.609 203.895  1.00 20.92     0.214 C 
HETATM   66  O6  GAL B   2     287.677 264.525 202.922  1.00 21.47    -0.218 OA
ENDBRANCH  16  65
ENDBRANCH  10  11
ENDBRANCH   3  10
BRANCH   4  67
HETATM   67  C6  BGC B   1     283.689 260.278 206.930  1.00 24.07     0.214 C 
HETATM   68  O6  BGC B   1     285.083 260.551 206.626  1.00 26.88    -0.218 OA
ENDBRANCH   4  67
TORSDOF 18
ENDMDL
MODEL 3
REMARK VINA RESULT:      -6.0     22.622     27.146
REMARK  18 active torsions:
REMARK  status: ('A' for Active; 'I' for Inactive)
REMARK    1  A    between atoms: C4_4162  and  O4_4169 
REMARK    2  A    between atoms: C5_4163  and  C6_4164 
REMARK    3  A    between atoms: O4_4169  and  C1_4172 
REMARK    4  A    between atoms: C3_4174  and  O3_4179 
REMARK    5  A    between atoms: C4_4175  and  O4_4180 
REMARK    6  A    between atoms: C5_4176  and  C6_4177 
REMARK    7  A    between atoms: O3_4179  and  C2_4209 
REMARK    8  A    between atoms: O4_4180  and  C1_4183 
REMARK    9  A    between atoms: C2_4184  and  N2_4191 
REMARK   10  A    between atoms: C3_4185  and  O3_4192 
REMARK   11  A    between atoms: C5_4187  and  C6_4188 
REMARK       I    between atoms: C7_4189  and  N2_4191 
REMARK   12  A    between atoms: O3_4192  and  C1_4197 
REMARK   13  A    between atoms: C5_4201  and  C6_4202 
REMARK   14  A    between atoms: C1_4208  and  C2_4209 
REMARK   15  A    between atoms: C5_4212  and  N5_4219 
REMARK   16  A    between atoms: C6_4213  and  C7_4214 
REMARK   17  A    between atoms: C7_4214  and  C8_4215 
REMARK   18  A    between atoms: C8_4215  and  C9_4216 
REMARK       I    between atoms: C10_4217  and  N5_4219 
ROOT
HETATM    1  C2  BGC B   1     270.346 242.602 196.748  1.00 23.00     0.244 C 
HETATM    2  C3  BGC B   1     269.437 243.775 197.086  1.00 22.71     0.217 C 
HETATM    3  C4  BGC B   1     268.021 243.467 196.566  1.00 19.49     0.181 C 
HETATM    4  C5  BGC B   1     267.548 242.151 197.204  1.00 21.23     0.181 C 
HETATM    5  C1  BGC B   1     269.773 241.318 197.363  1.00 23.10     0.303 C 
HETATM    6  O1  BGC B   1     270.560 240.212 196.925  1.00 30.29    -0.187 OA
HETATM    7  O2  BGC B   1     271.690 242.775 197.168  1.00 24.46    -0.215 OA
HETATM    8  O3  BGC B   1     269.952 244.970 196.532  1.00 20.09    -0.218 OA
HETATM    9  O5  BGC B   1     268.472 241.140 196.786  1.00 23.03    -0.324 OA
ENDROOT
BRANCH   3  10
HETATM   10  O4  BGC B   1     267.149 244.528 196.979  1.00 18.81    -0.326 OA
BRANCH  10  11
HETATM   11  C1  GAL B   2     266.538 245.297 195.952  1.00 18.29     0.270 C 
HETATM   12  C2  GAL B   2     267.033 246.704 196.037  1.00 21.36     0.238 C 
HETATM   13  C3  GAL B   2     266.618 247.541 194.831  1.00 18.89     0.183 C 
HETATM   14  O2  GAL B   2     266.595 247.302 197.243  1.00 21.67    -0.215 OA
HETATM   15  C4  GAL B   2     266.888 246.808 193.514  1.00 18.64     0.177 C 
HETATM   16  C5  GAL B   2     266.258 245.424 193.575  1.00 18.34     0.180 C 
HETATM   17  O5  GAL B   2     266.846 244.714 194.691  1.00 18.97    -0.326 OA
BRANCH  13  18
HETATM   18  O3  GAL B   2     267.389 248.729 194.948  1.00 18.86    -0.324 OA
BRANCH  18  19
HETATM   19  C2  SIA B   5     266.717 249.966 194.775  1.00 20.42     0.271 C 
HETATM   20  C3  SIA B   5     265.217 249.853 194.712  1.00 21.15     0.103 C 
HETATM   21  C4  SIA B   5     264.574 251.231 194.493  1.00 19.84     0.182 C 
HETATM   22  C5  SIA B   5     265.225 251.953 193.298  1.00 19.94     0.166 C 
HETATM   23  O4  SIA B   5     263.199 251.005 194.136  1.00 25.26    -0.221 OA
HETATM   24  C6  SIA B   5     266.734 251.963 193.453  1.00 20.62     0.176 C 
HETATM   25  O6  SIA B   5     267.246 250.606 193.611  1.00 20.84    -0.325 OA
BRANCH  19  26
HETATM   26  C1  SIA B   5     267.136 250.773 195.993  1.00 20.04     0.240 C 
HETATM   27  O1A SIA B   5     266.235 251.018 196.824  1.00 18.86    -0.644 OA
HETATM   28  O1B SIA B   5     268.319 251.176 196.068  1.00 20.53    -0.644 OA
ENDBRANCH  19  26
BRANCH  22  29
HETATM   29  N5  SIA B   5     264.627 253.259 193.112  1.00 20.57    -0.235 NA
HETATM   30  C10 SIA B   5     264.653 254.292 193.980  1.00 24.13     0.252 C 
HETATM   31  C11 SIA B   5     263.939 255.552 193.434  1.00 22.96     0.100 C 
HETATM   32  O10 SIA B   5     265.231 254.226 195.104  1.00 26.68    -0.271 OA
ENDBRANCH  22  29
BRANCH  24  33
HETATM   33  C7  SIA B   5     267.502 252.544 192.273  1.00 19.74     0.214 C 
HETATM   34  O7  SIA B   5     267.192 251.891 191.036  1.00 22.57    -0.218 OA
BRANCH  33  35
HETATM   35  C8  SIA B   5     269.009 252.311 192.576  1.00 19.54     0.218 C 
HETATM   36  O8  SIA B   5     269.633 253.569 192.706  1.00 19.73    -0.218 OA
BRANCH  35  37
HETATM   37  C9  SIA B   5     269.602 251.627 191.358  1.00 20.72     0.218 C 
HETATM   38  O9  SIA B   5     270.564 252.401 190.687  1.00 21.01    -0.218 OA
ENDBRANCH  35  37
ENDBRANCH  33  35
ENDBRANCH  24  33
ENDBRANCH  18  19
ENDBRANCH  13  18
BRANCH  15  39
HETATM   39  O4  GAL B   2     268.312 246.676 193.397  1.00 21.34    -0.327 OA
BRANCH  39  40
HETATM   40  C1  NGA B   3     268.811 247.398 192.261  1.00 19.80     0.262 C 
HETATM   41  C2  NGA B   3     269.883 246.552 191.547  1.00 20.60     0.192 C 
HETATM   42  C3  NGA B   3     270.324 247.248 190.260  1.00 18.92     0.178 C 
HETATM   43  C4  NGA B   3     269.107 247.564 189.394  1.00 18.56     0.211 C 
HETATM   44  C5  NGA B   3     268.086 248.337 190.237  1.00 20.83     0.184 C 
HETATM   45  O4  NGA B   3     268.491 246.390 188.884  1.00 25.94    -0.218 OA
HETATM   46  O5  NGA B   3     267.685 247.529 191.366  1.00 19.30    -0.327 OA
BRANCH  41  47
HETATM   47  N2  NGA B   3     270.950 246.381 192.538  1.00 20.03    -0.232 NA
HETATM   48  C7  NGA B   3     271.776 245.315 192.576  1.00 20.86     0.252 C 
HETATM   49  C8  NGA B   3     272.716 245.277 193.798  1.00 25.36     0.100 C 
HETATM   50  O7  NGA B   3     271.710 244.425 191.706  1.00 33.51    -0.271 OA
ENDBRANCH  41  47
BRANCH  42  51
HETATM   51  O3  NGA B   3     271.237 246.415 189.509  1.00 18.48    -0.327 OA
BRANCH  51  52
HETATM   52  C1  GAL B   4     272.436 247.048 189.097  1.00 17.31     0.270 C 
HETATM   53  C2  GAL B   4     272.376 247.523 187.653  1.00 14.28     0.241 C 
HETATM   54  C3  GAL B   4     273.655 248.241 187.247  1.00 14.14     0.220 C 
HETATM   55  O2  GAL B   4     272.199 246.403 186.790  1.00 16.82    -0.215 OA
HETATM   56  C4  GAL B   4     273.965 249.348 188.242  1.00 13.05     0.215 C 
HETATM   57  O3  GAL B   4     273.547 248.748 185.932  1.00 14.59    -0.218 OA
HETATM   58  C5  GAL B   4     273.892 248.815 189.667  1.00 15.75     0.184 C 
HETATM   59  O4  GAL B   4     273.061 250.427 188.033  1.00 13.46    -0.218 OA
HETATM   60  O5  GAL B   4     272.638 248.180 189.964  1.00 16.29    -0.326 OA
BRANCH  58  61
HETATM   61  C6  GAL B   4     274.148 249.913 190.705  1.00 16.07     0.215 C 
HETATM   62  O6  GAL B   4     273.010 250.253 191.480  1.00 17.63    -0.218 OA
ENDBRANCH  58  61
ENDBRANCH  51  52
ENDBRANCH  42  51
BRANCH  44  63
HETATM   63  C6  NGA B   3     266.825 248.665 189.424  1.00 23.22     0.215 C 
HETATM   64  O6  NGA B   3     265.741 247.904 189.931  1.00 34.06    -0.218 OA
ENDBRANCH  44  63
ENDBRANCH  39  40
ENDBRANCH  15  39
BRANCH  16  65
HETATM   65  C6  GAL B   2     266.411 244.575 192.351  1.00 20.92     0.214 C 
HETATM   66  O6  GAL B   2     267.345 243.513 192.555  1.00 21.47    -0.218 OA
ENDBRANCH  16  65
ENDBRANCH  10  11
ENDBRANCH   3  10
BRANCH   4  67
HETATM   67  C6  BGC B   1     266.183 241.734 196.637  1.00 24.07     0.214 C 
HETATM   68  O6  BGC B   1     266.296 241.566 195.199  1.00 26.88    -0.218 OA
ENDBRANCH   4  67
TORSDOF 18
ENDMDL
MODEL 4
REMARK VINA RESULT:      -5.9      2.463      7.657
REMARK  18 active torsions:
REMARK  status: ('A' for Active; 'I' for Inactive)
REMARK    1  A    between atoms: C4_4162  and  O4_4169 
REMARK    2  A    between atoms: C5_4163  and  C6_4164 
REMARK    3  A    between atoms: O4_4169  and  C1_4172 
REMARK    4  A    between atoms: C3_4174  and  O3_4179 
REMARK    5  A    between atoms: C4_4175  and  O4_4180 
REMARK    6  A    between atoms: C5_4176  and  C6_4177 
REMARK    7  A    between atoms: O3_4179  and  C2_4209 
REMARK    8  A    between atoms: O4_4180  and  C1_4183 
REMARK    9  A    between atoms: C2_4184  and  N2_4191 
REMARK   10  A    between atoms: C3_4185  and  O3_4192 
REMARK   11  A    between atoms: C5_4187  and  C6_4188 
REMARK       I    between atoms: C7_4189  and  N2_4191 
REMARK   12  A    between atoms: O3_4192  and  C1_4197 
REMARK   13  A    between atoms: C5_4201  and  C6_4202 
REMARK   14  A    between atoms: C1_4208  and  C2_4209 
REMARK   15  A    between atoms: C5_4212  and  N5_4219 
REMARK   16  A    between atoms: C6_4213  and  C7_4214 
REMARK   17  A    between atoms: C7_4214  and  C8_4215 
REMARK   18  A    between atoms: C8_4215  and  C9_4216 
REMARK       I    between atoms: C10_4217  and  N5_4219 
ROOT
HETATM    1  C2  BGC B   1     283.543 263.516 206.173  1.00 23.00     0.244 C 
HETATM    2  C3  BGC B   1     284.322 264.768 205.800  1.00 22.71     0.217 C 
HETATM    3  C4  BGC B   1     283.324 265.872 205.407  1.00 19.49     0.181 C 
HETATM    4  C5  BGC B   1     282.369 266.103 206.590  1.00 21.23     0.181 C 
HETATM    5  C1  BGC B   1     282.566 263.842 207.312  1.00 23.10     0.303 C 
HETATM    6  O1  BGC B   1     281.752 262.697 207.557  1.00 30.29    -0.187 OA
HETATM    7  O2  BGC B   1     284.360 262.417 206.544  1.00 24.46    -0.215 OA
HETATM    8  O3  BGC B   1     285.233 264.486 204.755  1.00 20.09    -0.218 OA
HETATM    9  O5  BGC B   1     281.690 264.861 206.813  1.00 23.03    -0.324 OA
ENDROOT
BRANCH   3  10
HETATM   10  O4  BGC B   1     284.060 267.078 205.158  1.00 18.81    -0.326 OA
BRANCH  10  11
HETATM   11  C1  GAL B   2     283.941 267.649 203.862  1.00 18.29     0.270 C 
HETATM   12  C2  GAL B   2     285.303 267.779 203.261  1.00 21.36     0.238 C 
HETATM   13  C3  GAL B   2     285.253 268.157 201.784  1.00 18.89     0.183 C 
HETATM   14  O2  GAL B   2     286.072 268.712 203.997  1.00 21.67    -0.215 OA
HETATM   15  C4  GAL B   2     284.254 267.292 201.013  1.00 18.64     0.177 C 
HETATM   16  C5  GAL B   2     282.909 267.327 201.723  1.00 18.34     0.180 C 
HETATM   17  O5  GAL B   2     283.101 266.822 203.066  1.00 18.97    -0.326 OA
BRANCH  13  18
HETATM   18  O3  GAL B   2     286.586 267.968 201.330  1.00 18.86    -0.324 OA
BRANCH  18  19
HETATM   19  C2  SIA B   5     287.275 269.102 200.827  1.00 20.42     0.271 C 
HETATM   20  C3  SIA B   5     288.694 269.230 201.313  1.00 21.15     0.103 C 
HETATM   21  C4  SIA B   5     289.352 270.497 200.747  1.00 19.84     0.182 C 
HETATM   22  C5  SIA B   5     288.464 271.731 200.994  1.00 19.94     0.166 C 
HETATM   23  O4  SIA B   5     290.567 270.711 201.488  1.00 25.26    -0.221 OA
HETATM   24  C6  SIA B   5     287.053 271.465 200.505  1.00 20.62     0.176 C 
HETATM   25  O6  SIA B   5     286.505 270.268 201.134  1.00 20.84    -0.325 OA
BRANCH  19  26
HETATM   26  C1  SIA B   5     287.248 268.897 199.322  1.00 20.04     0.240 C 
HETATM   27  O1A SIA B   5     288.049 268.051 198.870  1.00 18.86    -0.644 OA
HETATM   28  O1B SIA B   5     286.478 269.605 198.633  1.00 20.53    -0.644 OA
ENDBRANCH  19  26
BRANCH  22  29
HETATM   29  N5  SIA B   5     289.083 272.917 200.439  1.00 20.57    -0.235 NA
HETATM   30  C10 SIA B   5     289.729 273.886 201.120  1.00 24.13     0.252 C 
HETATM   31  C11 SIA B   5     290.297 274.991 200.197  1.00 22.96     0.100 C 
HETATM   32  O10 SIA B   5     289.869 273.861 202.378  1.00 26.68    -0.271 OA
ENDBRANCH  22  29
BRANCH  24  33
HETATM   33  C7  SIA B   5     286.046 272.567 200.803  1.00 19.74     0.214 C 
HETATM   34  O7  SIA B   5     286.219 273.716 199.964  1.00 22.57    -0.218 OA
BRANCH  33  35
HETATM   35  C8  SIA B   5     286.300 273.003 202.274  1.00 19.54     0.218 C 
HETATM   36  O8  SIA B   5     285.185 272.617 203.048  1.00 19.73    -0.218 OA
BRANCH  35  37
HETATM   37  C9  SIA B   5     286.361 274.520 202.279  1.00 20.72     0.218 C 
HETATM   38  O9  SIA B   5     285.536 275.115 203.249  1.00 21.01    -0.218 OA
ENDBRANCH  35  37
ENDBRANCH  33  35
ENDBRANCH  24  33
ENDBRANCH  18  19
ENDBRANCH  13  18
BRANCH  15  39
HETATM   39  O4  GAL B   2     284.765 265.951 201.032  1.00 21.34    -0.327 OA
BRANCH  39  40
HETATM   40  C1  NGA B   3     284.988 265.460 199.701  1.00 19.80     0.262 C 
HETATM   41  C2  NGA B   3     283.919 264.403 199.359  1.00 20.60     0.192 C 
HETATM   42  C3  NGA B   3     284.062 263.972 197.901  1.00 18.92     0.178 C 
HETATM   43  C4  NGA B   3     284.036 265.197 196.989  1.00 18.56     0.211 C 
HETATM   44  C5  NGA B   3     285.086 266.200 197.478  1.00 20.83     0.184 C 
HETATM   45  O4  NGA B   3     282.765 265.829 196.974  1.00 25.94    -0.218 OA
HETATM   46  O5  NGA B   3     284.780 266.595 198.833  1.00 19.30    -0.327 OA
BRANCH  41  47
HETATM   47  N2  NGA B   3     284.128 263.327 200.332  1.00 20.03    -0.232 NA
HETATM   48  C7  NGA B   3     283.136 262.756 201.047  1.00 20.86     0.252 C 
HETATM   49  C8  NGA B   3     283.613 261.755 202.117  1.00 25.36     0.100 C 
HETATM   50  O7  NGA B   3     281.948 263.086 200.864  1.00 33.51    -0.271 OA
ENDBRANCH  41  47
BRANCH  42  51
HETATM   51  O3  NGA B   3     282.992 263.076 197.520  1.00 18.48    -0.327 OA
BRANCH  51  52
HETATM   52  C1  GAL B   4     283.360 261.714 197.386  1.00 17.31     0.270 C 
HETATM   53  C2  GAL B   4     282.161 260.810 197.141  1.00 14.28     0.241 C 
HETATM   54  C3  GAL B   4     282.583 259.360 196.952  1.00 14.14     0.220 C 
HETATM   55  O2  GAL B   4     281.279 260.876 198.259  1.00 16.82    -0.215 OA
HETATM   56  C4  GAL B   4     283.648 259.269 195.871  1.00 13.05     0.215 C 
HETATM   57  O3  GAL B   4     281.467 258.550 196.643  1.00 14.59    -0.218 OA
HETATM   58  C5  GAL B   4     284.753 260.285 196.127  1.00 15.75     0.184 C 
HETATM   59  O4  GAL B   4     283.037 259.461 194.600  1.00 13.46    -0.218 OA
HETATM   60  O5  GAL B   4     284.260 261.627 196.265  1.00 16.29    -0.326 OA
BRANCH  58  61
HETATM   61  C6  GAL B   4     285.822 260.261 195.030  1.00 16.07     0.215 C 
HETATM   62  O6  GAL B   4     286.322 258.966 194.738  1.00 17.63    -0.218 OA
ENDBRANCH  58  61
ENDBRANCH  51  52
ENDBRANCH  42  51
BRANCH  44  63
HETATM   63  C6  NGA B   3     285.093 267.468 196.610  1.00 23.22     0.215 C 
HETATM   64  O6  NGA B   3     285.351 267.100 195.265  1.00 34.06    -0.218 OA
ENDBRANCH  44  63
ENDBRANCH  39  40
ENDBRANCH  15  39
BRANCH  16  65
HETATM   65  C6  GAL B   2     281.804 266.544 201.085  1.00 20.92     0.214 C 
HETATM   66  O6  GAL B   2     281.565 266.963 199.740  1.00 21.47    -0.218 OA
ENDBRANCH  16  65
ENDBRANCH  10  11
ENDBRANCH   3  10
BRANCH   4  67
HETATM   67  C6  BGC B   1     281.279 267.117 206.216  1.00 24.07     0.214 C 
HETATM   68  O6  BGC B   1     281.454 268.320 207.011  1.00 26.88    -0.218 OA
ENDBRANCH   4  67
TORSDOF 18
ENDMDL
MODEL 5
REMARK VINA RESULT:      -5.9     16.243     20.357
REMARK  18 active torsions:
REMARK  status: ('A' for Active; 'I' for Inactive)
REMARK    1  A    between atoms: C4_4162  and  O4_4169 
REMARK    2  A    between atoms: C5_4163  and  C6_4164 
REMARK    3  A    between atoms: O4_4169  and  C1_4172 
REMARK    4  A    between atoms: C3_4174  and  O3_4179 
REMARK    5  A    between atoms: C4_4175  and  O4_4180 
REMARK    6  A    between atoms: C5_4176  and  C6_4177 
REMARK    7  A    between atoms: O3_4179  and  C2_4209 
REMARK    8  A    between atoms: O4_4180  and  C1_4183 
REMARK    9  A    between atoms: C2_4184  and  N2_4191 
REMARK   10  A    between atoms: C3_4185  and  O3_4192 
REMARK   11  A    between atoms: C5_4187  and  C6_4188 
REMARK       I    between atoms: C7_4189  and  N2_4191 
REMARK   12  A    between atoms: O3_4192  and  C1_4197 
REMARK   13  A    between atoms: C5_4201  and  C6_4202 
REMARK   14  A    between atoms: C1_4208  and  C2_4209 
REMARK   15  A    between atoms: C5_4212  and  N5_4219 
REMARK   16  A    between atoms: C6_4213  and  C7_4214 
REMARK   17  A    between atoms: C7_4214  and  C8_4215 
REMARK   18  A    between atoms: C8_4215  and  C9_4216 
REMARK       I    between atoms: C10_4217  and  N5_4219 
ROOT
HETATM    1  C2  BGC B   1     268.778 264.321 190.815  1.00 23.00     0.244 C 
HETATM    2  C3  BGC B   1     269.689 263.272 191.436  1.00 22.71     0.217 C 
HETATM    3  C4  BGC B   1     270.772 262.891 190.412  1.00 19.49     0.181 C 
HETATM    4  C5  BGC B   1     271.530 264.168 190.013  1.00 21.23     0.181 C 
HETATM    5  C1  BGC B   1     269.615 265.534 190.384  1.00 23.10     0.303 C 
HETATM    6  O1  BGC B   1     268.770 266.446 189.685  1.00 30.29    -0.187 OA
HETATM    7  O2  BGC B   1     267.724 264.746 191.665  1.00 24.46    -0.215 OA
HETATM    8  O3  BGC B   1     268.934 262.148 191.846  1.00 20.09    -0.218 OA
HETATM    9  O5  BGC B   1     270.564 265.048 189.426  1.00 23.03    -0.324 OA
ENDROOT
BRANCH   3  10
HETATM   10  O4  BGC B   1     271.686 261.981 191.039  1.00 18.81    -0.326 OA
BRANCH  10  11
HETATM   11  C1  GAL B   2     271.806 260.687 190.463  1.00 18.29     0.270 C 
HETATM   12  C2  GAL B   2     272.140 259.704 191.537  1.00 21.36     0.238 C 
HETATM   13  C3  GAL B   2     272.050 258.261 191.053  1.00 18.89     0.183 C 
HETATM   14  O2  GAL B   2     273.422 259.982 192.069  1.00 21.67    -0.215 OA
HETATM   15  C4  GAL B   2     270.754 258.003 190.280  1.00 18.64     0.177 C 
HETATM   16  C5  GAL B   2     270.608 259.050 189.186  1.00 18.34     0.180 C 
HETATM   17  O5  GAL B   2     270.583 260.353 189.816  1.00 18.97    -0.326 OA
BRANCH  13  18
HETATM   18  O3  GAL B   2     272.124 257.488 192.243  1.00 18.86    -0.324 OA
BRANCH  18  19
HETATM   19  C2  SIA B   5     273.195 256.565 192.359  1.00 20.42     0.271 C 
HETATM   20  C3  SIA B   5     274.200 256.913 193.425  1.00 21.15     0.103 C 
HETATM   21  C4  SIA B   5     275.338 255.881 193.461  1.00 19.84     0.182 C 
HETATM   22  C5  SIA B   5     275.927 255.669 192.053  1.00 19.94     0.166 C 
HETATM   23  O4  SIA B   5     276.391 256.440 194.266  1.00 25.26    -0.221 OA
HETATM   24  C6  SIA B   5     274.817 255.371 191.062  1.00 20.62     0.176 C 
HETATM   25  O6  SIA B   5     273.813 256.430 191.076  1.00 20.84    -0.325 OA
BRANCH  19  26
HETATM   26  C1  SIA B   5     272.503 255.254 192.694  1.00 20.04     0.240 C 
HETATM   27  O1A SIA B   5     272.249 255.062 193.902  1.00 18.86    -0.644 OA
HETATM   28  O1B SIA B   5     272.275 254.442 191.768  1.00 20.53    -0.644 OA
ENDBRANCH  19  26
BRANCH  22  29
HETATM   29  N5  SIA B   5     276.984 254.680 192.093  1.00 20.57    -0.235 NA
HETATM   30  C10 SIA B   5     278.312 254.914 192.055  1.00 24.13     0.252 C 
HETATM   31  C11 SIA B   5     279.153 253.619 192.153  1.00 22.96     0.100 C 
HETATM   32  O10 SIA B   5     278.799 256.081 191.977  1.00 26.68    -0.271 OA
ENDBRANCH  22  29
BRANCH  24  33
HETATM   33  C7  SIA B   5     275.259 255.260 189.610  1.00 19.74     0.214 C 
HETATM   34  O7  SIA B   5     274.629 256.228 188.763  1.00 22.57    -0.218 OA
BRANCH  33  35
HETATM   35  C8  SIA B   5     274.827 253.846 189.129  1.00 19.54     0.218 C 
HETATM   36  O8  SIA B   5     274.701 253.013 190.262  1.00 19.73    -0.218 OA
BRANCH  35  37
HETATM   37  C9  SIA B   5     275.964 253.302 188.283  1.00 20.72     0.218 C 
HETATM   38  O9  SIA B   5     277.197 253.255 188.956  1.00 21.01    -0.218 OA
ENDBRANCH  35  37
ENDBRANCH  33  35
ENDBRANCH  24  33
ENDBRANCH  18  19
ENDBRANCH  13  18
BRANCH  15  39
HETATM   39  O4  GAL B   2     269.677 258.144 191.218  1.00 21.34    -0.327 OA
BRANCH  39  40
HETATM   40  C1  NGA B   3     269.185 256.863 191.643  1.00 19.80     0.262 C 
HETATM   41  C2  NGA B   3     267.666 256.952 191.884  1.00 20.60     0.192 C 
HETATM   42  C3  NGA B   3     267.108 255.566 192.204  1.00 18.92     0.178 C 
HETATM   43  C4  NGA B   3     267.504 254.578 191.110  1.00 18.56     0.211 C 
HETATM   44  C5  NGA B   3     269.023 254.640 190.912  1.00 20.83     0.184 C 
HETATM   45  O4  NGA B   3     266.866 254.862 189.873  1.00 25.94    -0.218 OA
HETATM   46  O5  NGA B   3     269.403 255.978 190.523  1.00 19.30    -0.327 OA
BRANCH  41  47
HETATM   47  N2  NGA B   3     267.512 257.931 192.965  1.00 20.03    -0.232 NA
HETATM   48  C7  NGA B   3     266.668 258.982 192.912  1.00 20.86     0.252 C 
HETATM   49  C8  NGA B   3     266.790 259.960 194.097  1.00 25.36     0.100 C 
HETATM   50  O7  NGA B   3     265.909 259.142 191.937  1.00 33.51    -0.271 OA
ENDBRANCH  41  47
BRANCH  42  51
HETATM   51  O3  NGA B   3     265.666 255.602 192.310  1.00 18.48    -0.327 OA
BRANCH  51  52
HETATM   52  C1  GAL B   4     265.154 255.559 193.631  1.00 17.31     0.270 C 
HETATM   53  C2  GAL B   4     263.683 255.945 193.696  1.00 14.28     0.241 C 
HETATM   54  C3  GAL B   4     263.141 255.846 195.115  1.00 14.14     0.220 C 
HETATM   55  O2  GAL B   4     263.524 257.290 193.250  1.00 16.82    -0.215 OA
HETATM   56  C4  GAL B   4     263.437 254.468 195.685  1.00 13.05     0.215 C 
HETATM   57  O3  GAL B   4     261.756 256.126 195.142  1.00 14.59    -0.218 OA
HETATM   58  C5  GAL B   4     264.903 254.110 195.476  1.00 15.75     0.184 C 
HETATM   59  O4  GAL B   4     262.568 253.518 195.078  1.00 13.46    -0.218 OA
HETATM   60  O5  GAL B   4     265.313 254.208 194.103  1.00 16.29    -0.326 OA
BRANCH  58  61
HETATM   61  C6  GAL B   4     265.230 252.705 195.992  1.00 16.07     0.215 C 
HETATM   62  O6  GAL B   4     266.494 252.216 195.575  1.00 17.63    -0.218 OA
ENDBRANCH  58  61
ENDBRANCH  51  52
ENDBRANCH  42  51
BRANCH  44  63
HETATM   63  C6  NGA B   3     269.481 253.680 189.805  1.00 23.22     0.215 C 
HETATM   64  O6  NGA B   3     270.563 254.272 189.104  1.00 34.06    -0.218 OA
ENDBRANCH  44  63
ENDBRANCH  39  40
ENDBRANCH  15  39
BRANCH  16  65
HETATM   65  C6  GAL B   2     269.396 258.932 188.316  1.00 20.92     0.214 C 
HETATM   66  O6  GAL B   2     268.663 260.157 188.256  1.00 21.47    -0.218 OA
ENDBRANCH  16  65
ENDBRANCH  10  11
ENDBRANCH   3  10
BRANCH   4  67
HETATM   67  C6  BGC B   1     272.553 263.868 188.908  1.00 24.07     0.214 C 
HETATM   68  O6  BGC B   1     271.906 263.104 187.855  1.00 26.88    -0.218 OA
ENDBRANCH   4  67
TORSDOF 18
ENDMDL
MODEL 6
REMARK VINA RESULT:      -5.8      1.460      2.518
REMARK  18 active torsions:
REMARK  status: ('A' for Active; 'I' for Inactive)
REMARK    1  A    between atoms: C4_4162  and  O4_4169 
REMARK    2  A    between atoms: C5_4163  and  C6_4164 
REMARK    3  A    between atoms: O4_4169  and  C1_4172 
REMARK    4  A    between atoms: C3_4174  and  O3_4179 
REMARK    5  A    between atoms: C4_4175  and  O4_4180 
REMARK    6  A    between atoms: C5_4176  and  C6_4177 
REMARK    7  A    between atoms: O3_4179  and  C2_4209 
REMARK    8  A    between atoms: O4_4180  and  C1_4183 
REMARK    9  A    between atoms: C2_4184  and  N2_4191 
REMARK   10  A    between atoms: C3_4185  and  O3_4192 
REMARK   11  A    between atoms: C5_4187  and  C6_4188 
REMARK       I    between atoms: C7_4189  and  N2_4191 
REMARK   12  A    between atoms: O3_4192  and  C1_4197 
REMARK   13  A    between atoms: C5_4201  and  C6_4202 
REMARK   14  A    between atoms: C1_4208  and  C2_4209 
REMARK   15  A    between atoms: C5_4212  and  N5_4219 
REMARK   16  A    between atoms: C6_4213  and  C7_4214 
REMARK   17  A    between atoms: C7_4214  and  C8_4215 
REMARK   18  A    between atoms: C8_4215  and  C9_4216 
REMARK       I    between atoms: C10_4217  and  N5_4219 
ROOT
HETATM    1  C2  BGC B   1     286.654 273.673 201.194  1.00 23.00     0.244 C 
HETATM    2  C3  BGC B   1     286.015 272.332 200.863  1.00 22.71     0.217 C 
HETATM    3  C4  BGC B   1     286.169 271.399 202.077  1.00 19.49     0.181 C 
HETATM    4  C5  BGC B   1     285.517 272.078 203.293  1.00 21.23     0.181 C 
HETATM    5  C1  BGC B   1     285.996 274.254 202.454  1.00 23.10     0.303 C 
HETATM    6  O1  BGC B   1     286.695 275.440 202.827  1.00 30.29    -0.187 OA
HETATM    7  O2  BGC B   1     286.587 274.620 200.140  1.00 24.46    -0.215 OA
HETATM    8  O3  BGC B   1     286.604 271.782 199.700  1.00 20.09    -0.218 OA
HETATM    9  O5  BGC B   1     286.226 273.304 203.503  1.00 23.03    -0.324 OA
ENDROOT
BRANCH   3  10
HETATM   10  O4  BGC B   1     285.475 270.175 201.796  1.00 18.81    -0.326 OA
BRANCH  10  11
HETATM   11  C1  GAL B   2     286.087 268.971 202.238  1.00 18.29     0.270 C 
HETATM   12  C2  GAL B   2     285.027 268.025 202.699  1.00 21.36     0.238 C 
HETATM   13  C3  GAL B   2     285.571 266.625 202.962  1.00 18.89     0.183 C 
HETATM   14  O2  GAL B   2     284.380 268.543 203.847  1.00 21.67    -0.215 OA
HETATM   15  C4  GAL B   2     286.458 266.137 201.814  1.00 18.64     0.177 C 
HETATM   16  C5  GAL B   2     287.520 267.187 201.523  1.00 18.34     0.180 C 
HETATM   17  O5  GAL B   2     286.845 268.418 201.168  1.00 18.97    -0.326 OA
BRANCH  13  18
HETATM   18  O3  GAL B   2     284.408 265.822 203.117  1.00 18.86    -0.324 OA
BRANCH  18  19
HETATM   19  C2  SIA B   5     284.291 265.060 204.308  1.00 20.42     0.271 C 
HETATM   20  C3  SIA B   5     284.973 265.670 205.504  1.00 21.15     0.103 C 
HETATM   21  C4  SIA B   5     284.824 264.767 206.737  1.00 19.84     0.182 C 
HETATM   22  C5  SIA B   5     285.248 263.323 206.411  1.00 19.94     0.166 C 
HETATM   23  O4  SIA B   5     285.746 265.250 207.731  1.00 25.26    -0.221 OA
HETATM   24  C6  SIA B   5     284.531 262.836 205.165  1.00 20.62     0.176 C 
HETATM   25  O6  SIA B   5     284.773 263.739 204.044  1.00 20.84    -0.325 OA
BRANCH  19  26
HETATM   26  C1  SIA B   5     282.791 264.983 204.537  1.00 20.04     0.240 C 
HETATM   27  O1A SIA B   5     282.199 264.039 203.973  1.00 18.86    -0.644 OA
HETATM   28  O1B SIA B   5     282.242 265.877 205.221  1.00 20.53    -0.644 OA
ENDBRANCH  19  26
BRANCH  22  29
HETATM   29  N5  SIA B   5     285.085 262.474 207.573  1.00 20.57    -0.235 NA
HETATM   30  C10 SIA B   5     286.065 261.880 208.285  1.00 24.13     0.252 C 
HETATM   31  C11 SIA B   5     285.526 261.071 209.490  1.00 22.96     0.100 C 
HETATM   32  O10 SIA B   5     287.292 262.008 207.999  1.00 26.68    -0.271 OA
ENDBRANCH  22  29
BRANCH  24  33
HETATM   33  C7  SIA B   5     284.957 261.462 204.669  1.00 19.74     0.214 C 
HETATM   34  O7  SIA B   5     285.685 261.519 203.436  1.00 22.57    -0.218 OA
BRANCH  33  35
HETATM   35  C8  SIA B   5     283.647 260.663 204.418  1.00 19.54     0.218 C 
HETATM   36  O8  SIA B   5     282.970 260.526 205.648  1.00 19.73    -0.218 OA
BRANCH  35  37
HETATM   37  C9  SIA B   5     284.058 259.275 203.962  1.00 20.72     0.218 C 
HETATM   38  O9  SIA B   5     283.130 258.666 203.100  1.00 21.01    -0.218 OA
ENDBRANCH  35  37
ENDBRANCH  33  35
ENDBRANCH  24  33
ENDBRANCH  18  19
ENDBRANCH  13  18
BRANCH  15  39
HETATM   39  O4  GAL B   2     285.608 265.992 200.667  1.00 21.34    -0.327 OA
BRANCH  39  40
HETATM   40  C1  NGA B   3     285.440 264.610 200.315  1.00 19.80     0.262 C 
HETATM   41  C2  NGA B   3     284.333 264.483 199.250  1.00 20.60     0.192 C 
HETATM   42  C3  NGA B   3     284.237 263.037 198.768  1.00 18.92     0.178 C 
HETATM   43  C4  NGA B   3     285.607 262.551 198.298  1.00 18.56     0.211 C 
HETATM   44  C5  NGA B   3     286.630 262.802 199.412  1.00 20.83     0.184 C 
HETATM   45  O4  NGA B   3     286.036 263.216 197.119  1.00 25.94    -0.218 OA
HETATM   46  O5  NGA B   3     286.687 264.215 199.703  1.00 19.30    -0.327 OA
BRANCH  41  47
HETATM   47  N2  NGA B   3     283.121 264.984 199.906  1.00 20.03    -0.232 NA
HETATM   48  C7  NGA B   3     282.209 265.772 199.299  1.00 20.86     0.252 C 
HETATM   49  C8  NGA B   3     281.099 266.300 200.229  1.00 25.36     0.100 C 
HETATM   50  O7  NGA B   3     282.326 266.072 198.095  1.00 33.51    -0.271 OA
ENDBRANCH  41  47
BRANCH  42  51
HETATM   51  O3  NGA B   3     283.293 262.917 197.680  1.00 18.48    -0.327 OA
BRANCH  51  52
HETATM   52  C1  GAL B   4     282.402 261.818 197.768  1.00 17.31     0.270 C 
HETATM   53  C2  GAL B   4     282.997 260.540 197.194  1.00 14.28     0.241 C 
HETATM   54  C3  GAL B   4     282.043 259.364 197.341  1.00 14.14     0.220 C 
HETATM   55  O2  GAL B   4     283.269 260.724 195.807  1.00 16.82    -0.215 OA
HETATM   56  C4  GAL B   4     281.602 259.235 198.791  1.00 13.05     0.215 C 
HETATM   57  O3  GAL B   4     282.646 258.171 196.880  1.00 14.59    -0.218 OA
HETATM   58  C5  GAL B   4     281.129 260.582 199.323  1.00 15.75     0.184 C 
HETATM   59  O4  GAL B   4     282.679 258.711 199.559  1.00 13.46    -0.218 OA
HETATM   60  O5  GAL B   4     282.108 261.622 199.163  1.00 16.29    -0.326 OA
BRANCH  58  61
HETATM   61  C6  GAL B   4     280.724 260.506 200.798  1.00 16.07     0.215 C 
HETATM   62  O6  GAL B   4     281.553 261.262 201.666  1.00 17.63    -0.218 OA
ENDBRANCH  58  61
ENDBRANCH  51  52
ENDBRANCH  42  51
BRANCH  44  63
HETATM   63  C6  NGA B   3     288.036 262.353 198.988  1.00 23.22     0.215 C 
HETATM   64  O6  NGA B   3     288.885 263.487 198.942  1.00 34.06    -0.218 OA
ENDBRANCH  44  63
ENDBRANCH  39  40
ENDBRANCH  15  39
BRANCH  16  65
HETATM   65  C6  GAL B   2     288.491 266.858 200.433  1.00 20.92     0.214 C 
HETATM   66  O6  GAL B   2     288.211 267.585 199.235  1.00 21.47    -0.218 OA
ENDBRANCH  16  65
ENDBRANCH  10  11
ENDBRANCH   3  10
BRANCH   4  67
HETATM   67  C6  BGC B   1     285.736 271.241 204.562  1.00 24.07     0.214 C 
HETATM   68  O6  BGC B   1     284.750 271.620 205.559  1.00 26.88    -0.218 OA
ENDBRANCH   4  67
TORSDOF 18
ENDMDL
MODEL 7
REMARK VINA RESULT:      -5.8      3.826      9.638
REMARK  18 active torsions:
REMARK  status: ('A' for Active; 'I' for Inactive)
REMARK    1  A    between atoms: C4_4162  and  O4_4169 
REMARK    2  A    between atoms: C5_4163  and  C6_4164 
REMARK    3  A    between atoms: O4_4169  and  C1_4172 
REMARK    4  A    between atoms: C3_4174  and  O3_4179 
REMARK    5  A    between atoms: C4_4175  and  O4_4180 
REMARK    6  A    between atoms: C5_4176  and  C6_4177 
REMARK    7  A    between atoms: O3_4179  and  C2_4209 
REMARK    8  A    between atoms: O4_4180  and  C1_4183 
REMARK    9  A    between atoms: C2_4184  and  N2_4191 
REMARK   10  A    between atoms: C3_4185  and  O3_4192 
REMARK   11  A    between atoms: C5_4187  and  C6_4188 
REMARK       I    between atoms: C7_4189  and  N2_4191 
REMARK   12  A    between atoms: O3_4192  and  C1_4197 
REMARK   13  A    between atoms: C5_4201  and  C6_4202 
REMARK   14  A    between atoms: C1_4208  and  C2_4209 
REMARK   15  A    between atoms: C5_4212  and  N5_4219 
REMARK   16  A    between atoms: C6_4213  and  C7_4214 
REMARK   17  A    between atoms: C7_4214  and  C8_4215 
REMARK   18  A    between atoms: C8_4215  and  C9_4216 
REMARK       I    between atoms: C10_4217  and  N5_4219 
ROOT
HETATM    1  C2  BGC B   1     279.115 256.637 196.871  1.00 23.00     0.244 C 
HETATM    2  C3  BGC B   1     280.264 256.995 197.800  1.00 22.71     0.217 C 
HETATM    3  C4  BGC B   1     279.698 257.747 199.019  1.00 19.49     0.181 C 
HETATM    4  C5  BGC B   1     278.651 256.848 199.696  1.00 21.23     0.181 C 
HETATM    5  C1  BGC B   1     278.082 255.797 197.636  1.00 23.10     0.303 C 
HETATM    6  O1  BGC B   1     276.951 255.585 196.793  1.00 30.29    -0.187 OA
HETATM    7  O2  BGC B   1     279.515 255.948 195.697  1.00 24.46    -0.215 OA
HETATM    8  O3  BGC B   1     281.231 257.765 197.111  1.00 20.09    -0.218 OA
HETATM    9  O5  BGC B   1     277.625 256.613 198.724  1.00 23.03    -0.324 OA
ENDROOT
BRANCH   3  10
HETATM   10  O4  BGC B   1     280.772 257.989 199.938  1.00 18.81    -0.326 OA
BRANCH  10  11
HETATM   11  C1  GAL B   2     280.947 259.327 200.386  1.00 18.29     0.270 C 
HETATM   12  C2  GAL B   2     282.192 259.406 201.209  1.00 21.36     0.238 C 
HETATM   13  C3  GAL B   2     282.587 260.844 201.529  1.00 18.89     0.183 C 
HETATM   14  O2  GAL B   2     282.041 258.646 202.393  1.00 21.67    -0.215 OA
HETATM   15  C4  GAL B   2     282.542 261.733 200.284  1.00 18.64     0.177 C 
HETATM   16  C5  GAL B   2     281.187 261.582 199.611  1.00 18.34     0.180 C 
HETATM   17  O5  GAL B   2     281.017 260.189 199.256  1.00 18.97    -0.326 OA
BRANCH  13  18
HETATM   18  O3  GAL B   2     283.900 260.735 202.060  1.00 18.86    -0.324 OA
BRANCH  18  19
HETATM   19  C2  SIA B   5     284.115 261.206 203.382  1.00 20.42     0.271 C 
HETATM   20  C3  SIA B   5     283.953 260.156 204.448  1.00 21.15     0.103 C 
HETATM   21  C4  SIA B   5     284.170 260.757 205.844  1.00 19.84     0.182 C 
HETATM   22  C5  SIA B   5     283.308 262.019 206.036  1.00 19.94     0.166 C 
HETATM   23  O4  SIA B   5     283.700 259.790 206.800  1.00 25.26    -0.221 OA
HETATM   24  C6  SIA B   5     283.523 262.978 204.880  1.00 20.62     0.176 C 
HETATM   25  O6  SIA B   5     283.248 262.322 203.606  1.00 20.84    -0.325 OA
BRANCH  19  26
HETATM   26  C1  SIA B   5     285.546 261.713 203.352  1.00 20.04     0.240 C 
HETATM   27  O1A SIA B   5     286.419 260.916 203.756  1.00 18.86    -0.644 OA
HETATM   28  O1B SIA B   5     285.759 262.890 202.978  1.00 20.53    -0.644 OA
ENDBRANCH  19  26
BRANCH  22  29
HETATM   29  N5  SIA B   5     283.535 262.590 207.347  1.00 20.57    -0.235 NA
HETATM   30  C10 SIA B   5     282.598 263.045 208.205  1.00 24.13     0.252 C 
HETATM   31  C11 SIA B   5     283.200 263.558 209.535  1.00 22.96     0.100 C 
HETATM   32  O10 SIA B   5     281.360 263.018 207.941  1.00 26.68    -0.271 OA
ENDBRANCH  22  29
BRANCH  24  33
HETATM   33  C7  SIA B   5     282.633 264.214 204.892  1.00 19.74     0.214 C 
HETATM   34  O7  SIA B   5     282.140 264.554 203.590  1.00 22.57    -0.218 OA
BRANCH  33  35
HETATM   35  C8  SIA B   5     283.523 265.387 205.392  1.00 19.54     0.218 C 
HETATM   36  O8  SIA B   5     282.832 266.058 206.422  1.00 19.73    -0.218 OA
BRANCH  35  37
HETATM   37  C9  SIA B   5     283.670 266.353 204.230  1.00 20.72     0.218 C 
HETATM   38  O9  SIA B   5     284.972 266.411 203.705  1.00 21.01    -0.218 OA
ENDBRANCH  35  37
ENDBRANCH  33  35
ENDBRANCH  24  33
ENDBRANCH  18  19
ENDBRANCH  13  18
BRANCH  15  39
HETATM   39  O4  GAL B   2     283.567 261.259 199.398  1.00 21.34    -0.327 OA
BRANCH  39  40
HETATM   40  C1  NGA B   3     284.486 262.308 199.056  1.00 19.80     0.262 C 
HETATM   41  C2  NGA B   3     284.485 262.511 197.528  1.00 20.60     0.192 C 
HETATM   42  C3  NGA B   3     285.354 263.713 197.163  1.00 18.92     0.178 C 
HETATM   43  C4  NGA B   3     284.906 264.941 197.951  1.00 18.56     0.211 C 
HETATM   44  C5  NGA B   3     284.875 264.588 199.443  1.00 20.83     0.184 C 
HETATM   45  O4  NGA B   3     283.618 265.392 197.557  1.00 25.94    -0.218 OA
HETATM   46  O5  NGA B   3     283.947 263.503 199.661  1.00 19.30    -0.327 OA
BRANCH  41  47
HETATM   47  N2  NGA B   3     284.953 261.236 196.977  1.00 20.03    -0.232 NA
HETATM   48  C7  NGA B   3     284.182 260.404 196.246  1.00 20.86     0.252 C 
HETATM   49  C8  NGA B   3     284.841 259.053 195.907  1.00 25.36     0.100 C 
HETATM   50  O7  NGA B   3     283.015 260.719 195.943  1.00 33.51    -0.271 OA
ENDBRANCH  41  47
BRANCH  42  51
HETATM   51  O3  NGA B   3     285.268 264.002 195.748  1.00 18.48    -0.327 OA
BRANCH  51  52
HETATM   52  C1  GAL B   4     285.647 265.314 195.373  1.00 17.31     0.270 C 
HETATM   53  C2  GAL B   4     286.977 265.345 194.633  1.00 14.28     0.241 C 
HETATM   54  C3  GAL B   4     287.342 266.757 194.198  1.00 14.14     0.220 C 
HETATM   55  O2  GAL B   4     288.009 264.861 195.489  1.00 16.82    -0.215 OA
HETATM   56  C4  GAL B   4     286.192 267.369 193.413  1.00 13.05     0.215 C 
HETATM   57  O3  GAL B   4     288.536 266.754 193.440  1.00 14.59    -0.218 OA
HETATM   58  C5  GAL B   4     284.882 267.194 194.170  1.00 15.75     0.184 C 
HETATM   59  O4  GAL B   4     286.142 266.774 192.122  1.00 13.46    -0.218 OA
HETATM   60  O5  GAL B   4     284.612 265.825 194.513  1.00 16.29    -0.326 OA
BRANCH  58  61
HETATM   61  C6  GAL B   4     283.688 267.753 193.388  1.00 16.07     0.215 C 
HETATM   62  O6  GAL B   4     282.745 266.771 192.992  1.00 17.63    -0.218 OA
ENDBRANCH  58  61
ENDBRANCH  51  52
ENDBRANCH  42  51
BRANCH  44  63
HETATM   63  C6  NGA B   3     284.408 265.782 200.289  1.00 23.22     0.215 C 
HETATM   64  O6  NGA B   3     283.119 265.500 200.808  1.00 34.06    -0.218 OA
ENDBRANCH  44  63
ENDBRANCH  39  40
ENDBRANCH  15  39
BRANCH  16  65
HETATM   65  C6  GAL B   2     280.965 262.404 198.380  1.00 20.92     0.214 C 
HETATM   66  O6  GAL B   2     280.976 263.804 198.667  1.00 21.47    -0.218 OA
ENDBRANCH  16  65
ENDBRANCH  10  11
ENDBRANCH   3  10
BRANCH   4  67
HETATM   67  C6  BGC B   1     277.970 257.589 200.855  1.00 24.07     0.214 C 
HETATM   68  O6  BGC B   1     277.565 256.626 201.865  1.00 26.88    -0.218 OA
ENDBRANCH   4  67
TORSDOF 18
ENDMDL
MODEL 8
REMARK VINA RESULT:      -5.8      4.062      9.474
REMARK  18 active torsions:
REMARK  status: ('A' for Active; 'I' for Inactive)
REMARK    1  A    between atoms: C4_4162  and  O4_4169 
REMARK    2  A    between atoms: C5_4163  and  C6_4164 
REMARK    3  A    between atoms: O4_4169  and  C1_4172 
REMARK    4  A    between atoms: C3_4174  and  O3_4179 
REMARK    5  A    between atoms: C4_4175  and  O4_4180 
REMARK    6  A    between atoms: C5_4176  and  C6_4177 
REMARK    7  A    between atoms: O3_4179  and  C2_4209 
REMARK    8  A    between atoms: O4_4180  and  C1_4183 
REMARK    9  A    between atoms: C2_4184  and  N2_4191 
REMARK   10  A    between atoms: C3_4185  and  O3_4192 
REMARK   11  A    between atoms: C5_4187  and  C6_4188 
REMARK       I    between atoms: C7_4189  and  N2_4191 
REMARK   12  A    between atoms: O3_4192  and  C1_4197 
REMARK   13  A    between atoms: C5_4201  and  C6_4202 
REMARK   14  A    between atoms: C1_4208  and  C2_4209 
REMARK   15  A    between atoms: C5_4212  and  N5_4219 
REMARK   16  A    between atoms: C6_4213  and  C7_4214 
REMARK   17  A    between atoms: C7_4214  and  C8_4215 
REMARK   18  A    between atoms: C8_4215  and  C9_4216 
REMARK       I    between atoms: C10_4217  and  N5_4219 
ROOT
HETATM    1  C2  BGC B   1     282.714 266.492 199.754  1.00 23.00     0.244 C 
HETATM    2  C3  BGC B   1     281.945 265.382 200.453  1.00 22.71     0.217 C 
HETATM    3  C4  BGC B   1     282.855 264.746 201.519  1.00 19.49     0.181 C 
HETATM    4  C5  BGC B   1     283.307 265.851 202.489  1.00 21.23     0.181 C 
HETATM    5  C1  BGC B   1     283.187 267.519 200.793  1.00 23.10     0.303 C 
HETATM    6  O1  BGC B   1     284.018 268.478 200.142  1.00 30.29    -0.187 OA
HETATM    7  O2  BGC B   1     281.979 267.150 198.733  1.00 24.46    -0.215 OA
HETATM    8  O3  BGC B   1     281.495 264.428 199.510  1.00 20.09    -0.218 OA
HETATM    9  O5  BGC B   1     284.032 266.807 201.707  1.00 23.03    -0.324 OA
ENDROOT
BRANCH   3  10
HETATM   10  O4  BGC B   1     282.090 263.773 202.243  1.00 18.81    -0.326 OA
BRANCH  10  11
HETATM   11  C1  GAL B   2     282.401 262.406 202.010  1.00 18.29     0.270 C 
HETATM   12  C2  GAL B   2     281.287 261.777 201.238  1.00 21.36     0.238 C 
HETATM   13  C3  GAL B   2     281.642 260.381 200.736  1.00 18.89     0.183 C 
HETATM   14  O2  GAL B   2     280.108 261.750 202.021  1.00 21.67    -0.215 OA
HETATM   15  C4  GAL B   2     283.022 260.352 200.076  1.00 18.64     0.177 C 
HETATM   16  C5  GAL B   2     284.042 260.965 201.023  1.00 18.34     0.180 C 
HETATM   17  O5  GAL B   2     283.632 262.325 201.301  1.00 18.97    -0.326 OA
BRANCH  13  18
HETATM   18  O3  GAL B   2     280.604 260.066 199.819  1.00 18.86    -0.324 OA
BRANCH  18  19
HETATM   19  C2  SIA B   5     280.036 258.767 199.892  1.00 20.42     0.271 C 
HETATM   20  C3  SIA B   5     280.462 257.972 201.097  1.00 21.15     0.103 C 
HETATM   21  C4  SIA B   5     279.828 256.573 201.080  1.00 19.84     0.182 C 
HETATM   22  C5  SIA B   5     280.066 255.882 199.724  1.00 19.94     0.166 C 
HETATM   23  O4  SIA B   5     280.514 255.784 202.069  1.00 25.26    -0.221 OA
HETATM   24  C6  SIA B   5     279.642 256.796 198.590  1.00 20.62     0.176 C 
HETATM   25  O6  SIA B   5     280.333 258.078 198.674  1.00 20.84    -0.325 OA
BRANCH  19  26
HETATM   26  C1  SIA B   5     278.541 259.034 199.936  1.00 20.04     0.240 C 
HETATM   27  O1A SIA B   5     278.058 259.614 198.940  1.00 18.86    -0.644 OA
HETATM   28  O1B SIA B   5     277.903 258.707 200.963  1.00 20.53    -0.644 OA
ENDBRANCH  19  26
BRANCH  22  29
HETATM   29  N5  SIA B   5     279.447 254.572 199.710  1.00 20.57    -0.235 NA
HETATM   30  C10 SIA B   5     280.059 253.391 199.482  1.00 24.13     0.252 C 
HETATM   31  C11 SIA B   5     279.092 252.187 199.579  1.00 22.96     0.100 C 
HETATM   32  O10 SIA B   5     281.299 253.298 199.245  1.00 26.68    -0.271 OA
ENDBRANCH  22  29
BRANCH  24  33
HETATM   33  C7  SIA B   5     279.941 256.273 197.192  1.00 19.74     0.214 C 
HETATM   34  O7  SIA B   5     280.382 257.302 196.298  1.00 22.57    -0.218 OA
BRANCH  33  35
HETATM   35  C8  SIA B   5     278.602 255.702 196.645  1.00 19.54     0.218 C 
HETATM   36  O8  SIA B   5     278.743 255.497 195.256  1.00 19.73    -0.218 OA
BRANCH  35  37
HETATM   37  C9  SIA B   5     277.550 256.777 196.847  1.00 20.72     0.218 C 
HETATM   38  O9  SIA B   5     276.270 256.270 197.130  1.00 21.01    -0.218 OA
ENDBRANCH  35  37
ENDBRANCH  33  35
ENDBRANCH  24  33
ENDBRANCH  18  19
ENDBRANCH  13  18
BRANCH  15  39
HETATM   39  O4  GAL B   2     282.932 261.156 198.891  1.00 21.34    -0.327 OA
BRANCH  39  40
HETATM   40  C1  NGA B   3     283.247 260.391 197.717  1.00 19.80     0.262 C 
HETATM   41  C2  NGA B   3     284.582 260.886 197.127  1.00 20.60     0.192 C 
HETATM   42  C3  NGA B   3     284.997 259.993 195.958  1.00 18.92     0.178 C 
HETATM   43  C4  NGA B   3     285.019 258.531 196.400  1.00 18.56     0.211 C 
HETATM   44  C5  NGA B   3     283.667 258.186 197.037  1.00 20.83     0.184 C 
HETATM   45  O4  NGA B   3     286.052 258.269 197.338  1.00 25.94    -0.218 OA
HETATM   46  O5  NGA B   3     283.444 259.039 198.182  1.00 19.30    -0.327 OA
BRANCH  41  47
HETATM   47  N2  NGA B   3     284.338 262.284 196.762  1.00 20.03    -0.232 NA
HETATM   48  C7  NGA B   3     285.112 263.313 197.168  1.00 20.86     0.252 C 
HETATM   49  C8  NGA B   3     284.574 264.707 196.789  1.00 25.36     0.100 C 
HETATM   50  O7  NGA B   3     286.139 263.110 197.843  1.00 33.51    -0.271 OA
ENDBRANCH  41  47
BRANCH  42  51
HETATM   51  O3  NGA B   3     286.307 260.359 195.469  1.00 18.48    -0.327 OA
BRANCH  51  52
HETATM   52  C1  GAL B   4     286.391 260.591 194.073  1.00 17.31     0.270 C 
HETATM   53  C2  GAL B   4     287.330 261.738 193.730  1.00 14.28     0.241 C 
HETATM   54  C3  GAL B   4     287.442 261.939 192.226  1.00 14.14     0.220 C 
HETATM   55  O2  GAL B   4     286.839 262.944 194.307  1.00 16.82    -0.215 OA
HETATM   56  C4  GAL B   4     287.811 260.625 191.555  1.00 13.05     0.215 C 
HETATM   57  O3  GAL B   4     288.382 262.950 191.925  1.00 14.59    -0.218 OA
HETATM   58  C5  GAL B   4     286.896 259.507 192.039  1.00 15.75     0.184 C 
HETATM   59  O4  GAL B   4     289.180 260.339 191.815  1.00 13.46    -0.218 OA
HETATM   60  O5  GAL B   4     286.878 259.378 193.470  1.00 16.29    -0.326 OA
BRANCH  58  61
HETATM   61  C6  GAL B   4     287.268 258.154 191.425  1.00 16.07     0.215 C 
HETATM   62  O6  GAL B   4     286.607 257.048 192.018  1.00 17.63    -0.218 OA
ENDBRANCH  58  61
ENDBRANCH  51  52
ENDBRANCH  42  51
BRANCH  44  63
HETATM   63  C6  NGA B   3     283.636 256.730 197.523  1.00 23.22     0.215 C 
HETATM   64  O6  NGA B   3     283.395 255.881 196.413  1.00 34.06    -0.218 OA
ENDBRANCH  44  63
ENDBRANCH  39  40
ENDBRANCH  15  39
BRANCH  16  65
HETATM   65  C6  GAL B   2     285.458 260.996 200.537  1.00 20.92     0.214 C 
HETATM   66  O6  GAL B   2     286.190 262.085 201.104  1.00 21.47    -0.218 OA
ENDBRANCH  16  65
ENDBRANCH  10  11
ENDBRANCH   3  10
BRANCH   4  67
HETATM   67  C6  BGC B   1     284.308 265.297 203.512  1.00 24.07     0.214 C 
HETATM   68  O6  BGC B   1     285.079 266.396 204.068  1.00 26.88    -0.218 OA
ENDBRANCH   4  67
TORSDOF 18
ENDMDL
MODEL 9
REMARK VINA RESULT:      -5.8      3.442     11.403
REMARK  18 active torsions:
REMARK  status: ('A' for Active; 'I' for Inactive)
REMARK    1  A    between atoms: C4_4162  and  O4_4169 
REMARK    2  A    between atoms: C5_4163  and  C6_4164 
REMARK    3  A    between atoms: O4_4169  and  C1_4172 
REMARK    4  A    between atoms: C3_4174  and  O3_4179 
REMARK    5  A    between atoms: C4_4175  and  O4_4180 
REMARK    6  A    between atoms: C5_4176  and  C6_4177 
REMARK    7  A    between atoms: O3_4179  and  C2_4209 
REMARK    8  A    between atoms: O4_4180  and  C1_4183 
REMARK    9  A    between atoms: C2_4184  and  N2_4191 
REMARK   10  A    between atoms: C3_4185  and  O3_4192 
REMARK   11  A    between atoms: C5_4187  and  C6_4188 
REMARK       I    between atoms: C7_4189  and  N2_4191 
REMARK   12  A    between atoms: O3_4192  and  C1_4197 
REMARK   13  A    between atoms: C5_4201  and  C6_4202 
REMARK   14  A    between atoms: C1_4208  and  C2_4209 
REMARK   15  A    between atoms: C5_4212  and  N5_4219 
REMARK   16  A    between atoms: C6_4213  and  C7_4214 
REMARK   17  A    between atoms: C7_4214  and  C8_4215 
REMARK   18  A    between atoms: C8_4215  and  C9_4216 
REMARK       I    between atoms: C10_4217  and  N5_4219 
ROOT
HETATM    1  C2  BGC B   1     278.172 258.480 200.531  1.00 23.00     0.244 C 
HETATM    2  C3  BGC B   1     279.141 258.220 199.387  1.00 22.71     0.217 C 
HETATM    3  C4  BGC B   1     280.146 257.141 199.827  1.00 19.49     0.181 C 
HETATM    4  C5  BGC B   1     279.358 255.883 200.230  1.00 21.23     0.181 C 
HETATM    5  C1  BGC B   1     277.475 257.168 200.918  1.00 23.10     0.303 C 
HETATM    6  O1  BGC B   1     276.675 257.401 202.076  1.00 30.29    -0.187 OA
HETATM    7  O2  BGC B   1     277.198 259.473 200.249  1.00 24.46    -0.215 OA
HETATM    8  O3  BGC B   1     279.790 259.420 199.012  1.00 20.09    -0.218 OA
HETATM    9  O5  BGC B   1     278.513 256.264 201.322  1.00 23.03    -0.324 OA
ENDROOT
BRANCH   3  10
HETATM   10  O4  BGC B   1     280.989 256.827 198.710  1.00 18.81    -0.326 OA
BRANCH  10  11
HETATM   11  C1  GAL B   2     282.323 257.314 198.753  1.00 18.29     0.270 C 
HETATM   12  C2  GAL B   2     282.571 258.164 197.549  1.00 21.36     0.238 C 
HETATM   13  C3  GAL B   2     283.892 258.921 197.633  1.00 18.89     0.183 C 
HETATM   14  O2  GAL B   2     282.513 257.373 196.376  1.00 21.67    -0.215 OA
HETATM   15  C4  GAL B   2     284.066 259.607 198.991  1.00 18.64     0.177 C 
HETATM   16  C5  GAL B   2     283.847 258.586 200.097  1.00 18.34     0.180 C 
HETATM   17  O5  GAL B   2     282.509 258.053 199.955  1.00 18.97    -0.326 OA
BRANCH  13  18
HETATM   18  O3  GAL B   2     283.826 259.858 196.566  1.00 18.86    -0.324 OA
BRANCH  18  19
HETATM   19  C2  SIA B   5     285.033 260.167 195.889  1.00 20.42     0.271 C 
HETATM   20  C3  SIA B   5     286.235 259.409 196.387  1.00 21.15     0.103 C 
HETATM   21  C4  SIA B   5     287.500 259.827 195.623  1.00 19.84     0.182 C 
HETATM   22  C5  SIA B   5     287.653 261.359 195.617  1.00 19.94     0.166 C 
HETATM   23  O4  SIA B   5     288.626 259.305 196.350  1.00 25.26    -0.221 OA
HETATM   24  C6  SIA B   5     286.367 262.011 195.141  1.00 20.62     0.176 C 
HETATM   25  O6  SIA B   5     285.238 261.581 195.959  1.00 20.84    -0.325 OA
BRANCH  19  26
HETATM   26  C1  SIA B   5     284.737 259.800 194.445  1.00 20.04     0.240 C 
HETATM   27  O1A SIA B   5     284.922 258.604 194.135  1.00 18.86    -0.644 OA
HETATM   28  O1B SIA B   5     284.380 260.705 193.656  1.00 20.53    -0.644 OA
ENDBRANCH  19  26
BRANCH  22  29
HETATM   29  N5  SIA B   5     288.837 261.745 194.877  1.00 20.57    -0.235 NA
HETATM   30  C10 SIA B   5     289.887 262.452 195.343  1.00 24.13     0.252 C 
HETATM   31  C11 SIA B   5     290.995 262.651 194.281  1.00 22.96     0.100 C 
HETATM   32  O10 SIA B   5     289.953 262.873 196.535  1.00 26.68    -0.271 OA
ENDBRANCH  22  29
BRANCH  24  33
HETATM   33  C7  SIA B   5     286.351 263.532 195.206  1.00 19.74     0.214 C 
HETATM   34  O7  SIA B   5     285.366 264.037 196.116  1.00 22.57    -0.218 OA
BRANCH  33  35
HETATM   35  C8  SIA B   5     285.984 264.024 193.777  1.00 19.54     0.218 C 
HETATM   36  O8  SIA B   5     287.153 263.998 192.987  1.00 19.73    -0.218 OA
BRANCH  35  37
HETATM   37  C9  SIA B   5     285.551 265.474 193.909  1.00 20.72     0.218 C 
HETATM   38  O9  SIA B   5     284.302 265.745 193.327  1.00 21.01    -0.218 OA
ENDBRANCH  35  37
ENDBRANCH  33  35
ENDBRANCH  24  33
ENDBRANCH  18  19
ENDBRANCH  13  18
BRANCH  15  39
HETATM   39  O4  GAL B   2     283.054 260.621 199.075  1.00 21.34    -0.327 OA
BRANCH  39  40
HETATM   40  C1  NGA B   3     283.635 261.921 199.266  1.00 19.80     0.262 C 
HETATM   41  C2  NGA B   3     283.207 262.476 200.639  1.00 20.60     0.192 C 
HETATM   42  C3  NGA B   3     283.926 263.796 200.913  1.00 18.92     0.178 C 
HETATM   43  C4  NGA B   3     285.434 263.610 200.762  1.00 18.56     0.211 C 
HETATM   44  C5  NGA B   3     285.722 262.983 199.393  1.00 20.83     0.184 C 
HETATM   45  O4  NGA B   3     285.977 262.776 201.775  1.00 25.94    -0.218 OA
HETATM   46  O5  NGA B   3     285.061 261.702 199.303  1.00 19.30    -0.327 OA
BRANCH  41  47
HETATM   47  N2  NGA B   3     281.748 262.586 200.563  1.00 20.03    -0.232 NA
HETATM   48  C7  NGA B   3     280.914 262.222 201.560  1.00 20.86     0.252 C 
HETATM   49  C8  NGA B   3     279.417 262.282 201.196  1.00 25.36     0.100 C 
HETATM   50  O7  NGA B   3     281.362 261.818 202.650  1.00 33.51    -0.271 OA
ENDBRANCH  41  47
BRANCH  42  51
HETATM   51  O3  NGA B   3     283.639 264.272 202.248  1.00 18.48    -0.327 OA
BRANCH  51  52
HETATM   52  C1  GAL B   4     283.419 265.668 202.360  1.00 17.31     0.270 C 
HETATM   53  C2  GAL B   4     283.788 266.205 203.735  1.00 14.28     0.241 C 
HETATM   54  C3  GAL B   4     283.589 267.712 203.818  1.00 14.14     0.220 C 
HETATM   55  O2  GAL B   4     282.964 265.591 204.722  1.00 16.82    -0.215 OA
HETATM   56  C4  GAL B   4     284.328 268.394 202.677  1.00 13.05     0.215 C 
HETATM   57  O3  GAL B   4     284.016 268.204 205.072  1.00 14.59    -0.218 OA
HETATM   58  C5  GAL B   4     283.992 267.722 201.351  1.00 15.75     0.184 C 
HETATM   59  O4  GAL B   4     285.725 268.367 202.946  1.00 13.46    -0.218 OA
HETATM   60  O5  GAL B   4     284.238 266.307 201.363  1.00 16.29    -0.326 OA
BRANCH  58  61
HETATM   61  C6  GAL B   4     284.757 268.348 200.181  1.00 16.07     0.215 C 
HETATM   62  O6  GAL B   4     284.610 269.755 200.080  1.00 17.63    -0.218 OA
ENDBRANCH  58  61
ENDBRANCH  51  52
ENDBRANCH  42  51
BRANCH  44  63
HETATM   63  C6  NGA B   3     287.227 262.751 199.191  1.00 23.22     0.215 C 
HETATM   64  O6  NGA B   3     287.466 261.357 199.092  1.00 34.06    -0.218 OA
ENDBRANCH  44  63
ENDBRANCH  39  40
ENDBRANCH  15  39
BRANCH  16  65
HETATM   65  C6  GAL B   2     284.001 259.088 201.498  1.00 20.92     0.214 C 
HETATM   66  O6  GAL B   2     282.792 258.951 202.248  1.00 21.47    -0.218 OA
ENDBRANCH  16  65
ENDBRANCH  10  11
ENDBRANCH   3  10
BRANCH   4  67
HETATM   67  C6  BGC B   1     280.302 254.807 200.784  1.00 24.07     0.214 C 
HETATM   68  O6  BGC B   1     281.181 255.407 201.773  1.00 26.88    -0.218 OA
ENDBRANCH   4  67
TORSDOF 18
ENDMDL
