MODEL 1
REMARK VINA RESULT:      -7.1      0.000      0.000
REMARK  18 active torsions:
REMARK  status: ('A' for Active; 'I' for Inactive)
REMARK    1  A    between atoms: C4_3  and  O4_10 
REMARK    2  A    between atoms: C5_4  and  C6_5 
REMARK    3  A    between atoms: O4_10  and  C1_13 
REMARK    4  A    between atoms: C3_15  and  O3_20 
REMARK    5  A    between atoms: C4_16  and  O4_21 
REMARK    6  A    between atoms: C5_17  and  C6_18 
REMARK    7  A    between atoms: O3_20  and  C2_50 
REMARK    8  A    between atoms: O4_21  and  C1_24 
REMARK    9  A    between atoms: C2_25  and  N2_32 
REMARK   10  A    between atoms: C3_26  and  O3_33 
REMARK   11  A    between atoms: C5_28  and  C6_29 
REMARK       I    between atoms: C7_30  and  N2_32 
REMARK   12  A    between atoms: O3_33  and  C1_38 
REMARK   13  A    between atoms: C5_42  and  C6_43 
REMARK   14  A    between atoms: C1_49  and  C2_50 
REMARK   15  A    between atoms: C5_53  and  N5_60 
REMARK   16  A    between atoms: C6_54  and  C7_55 
REMARK   17  A    between atoms: C7_55  and  C8_56 
REMARK   18  A    between atoms: C8_56  and  C9_57 
REMARK       I    between atoms: C10_58  and  N5_60 
ROOT
HETATM    1  C2  BGC J   1      59.595  81.178  71.143  1.00 33.73     0.244 C 
HETATM    2  C3  BGC J   1      60.905  80.615  70.608  1.00 34.22     0.217 C 
HETATM    3  C4  BGC J   1      61.405  79.480  71.516  1.00 35.62     0.181 C 
HETATM    4  C5  BGC J   1      60.312  78.424  71.634  1.00 33.72     0.181 C 
HETATM    5  C1  BGC J   1      58.534  80.132  71.445  1.00 35.29     0.303 C 
HETATM    6  O1  BGC J   1      57.475  80.631  72.274  1.00 22.52    -0.187 OA
HETATM    7  O2  BGC J   1      59.066  82.154  70.256  1.00 40.75    -0.215 OA
HETATM    8  O3  BGC J   1      61.905  81.643  70.563  1.00 32.08    -0.218 OA
HETATM    9  O5  BGC J   1      59.079  78.971  72.031  1.00 36.77    -0.324 OA
ENDROOT
BRANCH   3  10
HETATM   10  O4  BGC J   1      62.506  78.852  70.877  1.00 33.55    -0.326 OA
BRANCH  10  11
HETATM   11  C1  GAL J   2      63.757  78.734  71.554  1.00 29.50     0.270 C 
HETATM   12  C2  GAL J   2      64.824  79.494  70.807  1.00 27.02     0.238 C 
HETATM   13  C3  GAL J   2      66.096  79.714  71.641  1.00 23.05     0.183 C 
HETATM   14  O2  GAL J   2      65.213  78.746  69.662  1.00 31.87    -0.215 OA
HETATM   15  C4  GAL J   2      65.689  80.335  72.978  1.00 23.22     0.177 C 
HETATM   16  C5  GAL J   2      64.662  79.444  73.668  1.00 24.62     0.180 C 
HETATM   17  O5  GAL J   2      63.520  79.380  72.808  1.00 30.39    -0.326 OA
BRANCH  13  18
HETATM   18  O3  GAL J   2      66.855  80.680  70.904  1.00 25.06    -0.324 OA
BRANCH  18  19
HETATM   19  C2  SIA J   5      68.191  80.350  70.583  1.00 22.94     0.271 C 
HETATM   20  C3  SIA J   5      68.329  79.267  69.539  1.00 25.74     0.103 C 
HETATM   21  C4  SIA J   5      69.798  79.007  69.209  1.00 26.04     0.182 C 
HETATM   22  C5  SIA J   5      70.580  78.679  70.499  1.00 24.75     0.166 C 
HETATM   23  O4  SIA J   5      69.838  77.791  68.444  1.00 26.63    -0.221 OA
HETATM   24  C6  SIA J   5      70.334  79.802  71.500  1.00 22.50     0.176 C 
HETATM   25  O6  SIA J   5      68.908  79.954  71.760  1.00 22.65    -0.325 OA
BRANCH  19  26
HETATM   26  C1  SIA J   5      68.785  81.648  70.055  1.00 25.20     0.240 C 
HETATM   27  O1A SIA J   5      69.243  82.408  70.941  1.00 24.36    -0.644 OA
HETATM   28  O1B SIA J   5      68.722  81.856  68.822  1.00 23.37    -0.644 OA
ENDBRANCH  19  26
BRANCH  22  29
HETATM   29  N5  SIA J   5      71.973  78.507  70.118  1.00 21.56    -0.235 NA
HETATM   30  C10 SIA J   5      72.709  79.373  69.425  1.00 23.49     0.252 C 
HETATM   31  O10 SIA J   5      72.194  80.453  69.023  1.00 26.49    -0.271 OA
HETATM   32  C11 SIA J   5      74.128  78.855  69.180  1.00 20.70     0.100 C 
ENDBRANCH  22  29
BRANCH  24  33
HETATM   33  C7  SIA J   5      71.013  79.540  72.843  1.00 23.24     0.214 C 
HETATM   34  O7  SIA J   5      70.073  79.242  73.891  1.00 24.21    -0.218 OA
BRANCH  33  35
HETATM   35  C8  SIA J   5      71.788  80.806  73.196  1.00 24.66     0.218 C 
HETATM   36  O8  SIA J   5      72.848  80.950  72.275  1.00 20.98    -0.218 OA
BRANCH  35  37
HETATM   37  C9  SIA J   5      72.268  80.716  74.630  1.00 22.69     0.218 C 
HETATM   38  O9  SIA J   5      73.519  80.052  74.769  1.00 26.43    -0.218 OA
ENDBRANCH  35  37
ENDBRANCH  33  35
ENDBRANCH  24  33
ENDBRANCH  18  19
ENDBRANCH  13  18
BRANCH  15  39
HETATM   39  O4  GAL J   2      65.064  81.596  72.774  1.00 22.03    -0.327 OA
BRANCH  39  40
HETATM   40  C1  NGA J   3      65.852  82.693  73.196  1.00 22.91     0.262 C 
HETATM   41  C2  NGA J   3      65.009  83.511  74.182  1.00 21.55     0.192 C 
HETATM   42  C3  NGA J   3      65.863  84.588  74.773  1.00 19.57     0.178 C 
HETATM   43  C4  NGA J   3      67.197  84.094  75.336  1.00 18.76     0.211 C 
HETATM   44  C5  NGA J   3      67.906  83.278  74.274  1.00 22.49     0.184 C 
HETATM   45  O4  NGA J   3      66.993  83.366  76.534  1.00 22.74    -0.218 OA
HETATM   46  O5  NGA J   3      67.030  82.216  73.857  1.00 25.46    -0.327 OA
BRANCH  41  47
HETATM   47  N2  NGA J   3      63.820  83.888  73.439  1.00 24.00    -0.232 NA
HETATM   48  C7  NGA J   3      62.585  83.798  73.974  1.00 26.74     0.252 C 
HETATM   49  C8  NGA J   3      61.522  84.096  72.915  1.00 22.43     0.100 C 
HETATM   50  O7  NGA J   3      62.398  83.448  75.179  1.00 22.79    -0.271 OA
ENDBRANCH  41  47
BRANCH  42  51
HETATM   51  O3  NGA J   3      65.173  85.317  75.774  1.00 17.99    -0.327 OA
BRANCH  51  52
HETATM   52  C1  GAL J   4      64.907  86.655  75.415  1.00 14.14     0.270 C 
HETATM   53  C2  GAL J   4      65.701  87.558  76.333  1.00 12.92     0.241 C 
HETATM   54  C3  GAL J   4      65.542  89.023  75.947  1.00 11.17     0.220 C 
HETATM   55  O2  GAL J   4      65.352  87.368  77.689  1.00 13.46    -0.215 OA
HETATM   56  C4  GAL J   4      65.908  89.161  74.468  1.00 11.62     0.215 C 
HETATM   57  O3  GAL J   4      66.391  89.811  76.748  1.00 11.38    -0.218 OA
HETATM   58  O4  GAL J   4      67.305  88.965  74.295  1.00 11.09    -0.218 OA
HETATM   59  C5  GAL J   4      65.129  88.167  73.626  1.00 12.47     0.184 C 
HETATM   60  O5  GAL J   4      65.418  86.843  74.086  1.00 13.45    -0.326 OA
BRANCH  59  61
HETATM   61  C6  GAL J   4      65.565  88.152  72.181  1.00 11.95     0.215 C 
HETATM   62  O6  GAL J   4      66.027  86.892  71.740  1.00 15.73    -0.218 OA
ENDBRANCH  59  61
ENDBRANCH  51  52
ENDBRANCH  42  51
BRANCH  44  63
HETATM   63  C6  NGA J   3      69.224  82.717  74.751  1.00 23.49     0.215 C 
HETATM   64  O6  NGA J   3      70.157  83.732  75.031  1.00 36.93    -0.218 OA
ENDBRANCH  44  63
ENDBRANCH  39  40
ENDBRANCH  15  39
BRANCH  16  65
HETATM   65  C6  GAL J   2      64.219  80.079  74.999  1.00 29.12     0.214 C 
HETATM   66  O6  GAL J   2      64.600  79.233  76.085  1.00 34.44    -0.218 OA
ENDBRANCH  16  65
ENDBRANCH  10  11
ENDBRANCH   3  10
BRANCH   4  67
HETATM   67  C6  BGC J   1      60.677  77.166  72.432  1.00 30.61     0.214 C 
HETATM   68  O6  BGC J   1      59.792  76.103  72.206  1.00 38.23    -0.218 OA
ENDBRANCH   4  67
TORSDOF 18
ENDMDL
MODEL 2
REMARK VINA RESULT:      -7.1      1.628      2.382
REMARK  18 active torsions:
REMARK  status: ('A' for Active; 'I' for Inactive)
REMARK    1  A    between atoms: C4_3  and  O4_10 
REMARK    2  A    between atoms: C5_4  and  C6_5 
REMARK    3  A    between atoms: O4_10  and  C1_13 
REMARK    4  A    between atoms: C3_15  and  O3_20 
REMARK    5  A    between atoms: C4_16  and  O4_21 
REMARK    6  A    between atoms: C5_17  and  C6_18 
REMARK    7  A    between atoms: O3_20  and  C2_50 
REMARK    8  A    between atoms: O4_21  and  C1_24 
REMARK    9  A    between atoms: C2_25  and  N2_32 
REMARK   10  A    between atoms: C3_26  and  O3_33 
REMARK   11  A    between atoms: C5_28  and  C6_29 
REMARK       I    between atoms: C7_30  and  N2_32 
REMARK   12  A    between atoms: O3_33  and  C1_38 
REMARK   13  A    between atoms: C5_42  and  C6_43 
REMARK   14  A    between atoms: C1_49  and  C2_50 
REMARK   15  A    between atoms: C5_53  and  N5_60 
REMARK   16  A    between atoms: C6_54  and  C7_55 
REMARK   17  A    between atoms: C7_55  and  C8_56 
REMARK   18  A    between atoms: C8_56  and  C9_57 
REMARK       I    between atoms: C10_58  and  N5_60 
ROOT
HETATM    1  C2  BGC J   1      59.567  81.126  71.129  1.00 33.73     0.244 C 
HETATM    2  C3  BGC J   1      60.899  80.630  70.582  1.00 34.22     0.217 C 
HETATM    3  C4  BGC J   1      61.462  79.519  71.484  1.00 35.62     0.181 C 
HETATM    4  C5  BGC J   1      60.424  78.410  71.609  1.00 33.72     0.181 C 
HETATM    5  C1  BGC J   1      58.561  80.028  71.437  1.00 35.29     0.303 C 
HETATM    6  O1  BGC J   1      57.486  80.473  72.275  1.00 22.52    -0.187 OA
HETATM    7  O2  BGC J   1      58.983  82.076  70.248  1.00 40.75    -0.215 OA
HETATM    8  O3  BGC J   1      61.846  81.705  70.531  1.00 32.08    -0.218 OA
HETATM    9  O5  BGC J   1      59.168  78.895  72.017  1.00 36.77    -0.324 OA
ENDROOT
BRANCH   3  10
HETATM   10  O4  BGC J   1      62.587  78.948  70.834  1.00 33.55    -0.326 OA
BRANCH  10  11
HETATM   11  C1  GAL J   2      63.875  79.004  71.447  1.00 29.50     0.270 C 
HETATM   12  C2  GAL J   2      64.747  80.004  70.729  1.00 27.02     0.238 C 
HETATM   13  C3  GAL J   2      66.005  80.383  71.528  1.00 23.05     0.183 C 
HETATM   14  O2  GAL J   2      65.198  79.434  69.507  1.00 31.87    -0.215 OA
HETATM   15  C4  GAL J   2      65.568  80.809  72.930  1.00 23.22     0.177 C 
HETATM   16  C5  GAL J   2      64.756  79.694  73.578  1.00 24.62     0.180 C 
HETATM   17  O5  GAL J   2      63.597  79.493  72.763  1.00 30.39    -0.326 OA
BRANCH  13  18
HETATM   18  O3  GAL J   2      66.537  81.527  70.850  1.00 25.06    -0.324 OA
BRANCH  18  19
HETATM   19  C2  SIA J   5      67.907  81.498  70.504  1.00 22.94     0.271 C 
HETATM   20  C3  SIA J   5      68.342  80.235  69.800  1.00 25.74     0.103 C 
HETATM   21  C4  SIA J   5      69.818  80.303  69.412  1.00 26.04     0.182 C 
HETATM   22  C5  SIA J   5      70.679  80.606  70.657  1.00 24.75     0.166 C 
HETATM   23  O4  SIA J   5      70.203  78.974  69.022  1.00 26.63    -0.221 OA
HETATM   24  C6  SIA J   5      70.128  81.864  71.320  1.00 22.50     0.176 C 
HETATM   25  O6  SIA J   5      68.724  81.687  71.666  1.00 22.65    -0.325 OA
BRANCH  19  26
HETATM   26  C1  SIA J   5      68.087  82.689  69.573  1.00 25.20     0.240 C 
HETATM   27  O1A SIA J   5      68.384  82.386  68.393  1.00 24.36    -0.644 OA
HETATM   28  O1B SIA J   5      67.973  83.833  70.068  1.00 23.37    -0.644 OA
ENDBRANCH  19  26
BRANCH  22  29
HETATM   29  N5  SIA J   5      72.056  80.719  70.203  1.00 21.56    -0.235 NA
HETATM   30  C10 SIA J   5      73.020  79.820  70.393  1.00 23.49     0.252 C 
HETATM   31  O10 SIA J   5      72.774  78.761  71.035  1.00 26.49    -0.271 OA
HETATM   32  C11 SIA J   5      74.357  80.277  69.805  1.00 20.70     0.100 C 
ENDBRANCH  22  29
BRANCH  24  33
HETATM   33  C7  SIA J   5      70.873  82.214  72.606  1.00 23.24     0.214 C 
HETATM   34  O7  SIA J   5      72.092  82.939  72.361  1.00 24.21    -0.218 OA
BRANCH  33  35
HETATM   35  C8  SIA J   5      71.193  80.894  73.301  1.00 24.66     0.218 C 
HETATM   36  O8  SIA J   5      70.205  80.656  74.279  1.00 20.98    -0.218 OA
BRANCH  35  37
HETATM   37  C9  SIA J   5      72.590  80.961  73.883  1.00 22.69     0.218 C 
HETATM   38  O9  SIA J   5      73.097  79.693  74.284  1.00 26.43    -0.218 OA
ENDBRANCH  35  37
ENDBRANCH  33  35
ENDBRANCH  24  33
ENDBRANCH  18  19
ENDBRANCH  13  18
BRANCH  15  39
HETATM   39  O4  GAL J   2      64.719  81.948  72.866  1.00 22.03    -0.327 OA
BRANCH  39  40
HETATM   40  C1  NGA J   3      65.247  83.086  73.520  1.00 22.91     0.262 C 
HETATM   41  C2  NGA J   3      64.301  83.431  74.677  1.00 21.55     0.192 C 
HETATM   42  C3  NGA J   3      64.909  84.530  75.490  1.00 19.57     0.178 C 
HETATM   43  C4  NGA J   3      66.357  84.272  75.909  1.00 18.76     0.211 C 
HETATM   44  C5  NGA J   3      67.168  83.912  74.680  1.00 22.49     0.184 C 
HETATM   45  O4  NGA J   3      66.416  83.271  76.910  1.00 22.74    -0.218 OA
HETATM   46  O5  NGA J   3      66.548  82.784  74.040  1.00 25.46    -0.327 OA
BRANCH  41  47
HETATM   47  N2  NGA J   3      63.009  83.654  74.053  1.00 24.00    -0.232 NA
HETATM   48  C7  NGA J   3      61.879  83.093  74.533  1.00 26.74     0.252 C 
HETATM   49  C8  NGA J   3      60.708  83.361  73.584  1.00 22.43     0.100 C 
HETATM   50  O7  NGA J   3      61.870  82.399  75.594  1.00 22.79    -0.271 OA
ENDBRANCH  41  47
BRANCH  42  51
HETATM   51  O3  NGA J   3      64.134  84.825  76.639  1.00 17.99    -0.327 OA
BRANCH  51  52
HETATM   52  C1  GAL J   4      63.885  86.202  76.813  1.00 14.14     0.270 C 
HETATM   53  C2  GAL J   4      62.540  86.358  77.488  1.00 12.92     0.241 C 
HETATM   54  C3  GAL J   4      62.239  87.819  77.799  1.00 11.17     0.220 C 
HETATM   55  O2  GAL J   4      61.497  85.796  76.718  1.00 13.46    -0.215 OA
HETATM   56  C4  GAL J   4      63.412  88.377  78.609  1.00 11.62     0.215 C 
HETATM   57  O3  GAL J   4      61.040  87.902  78.532  1.00 11.38    -0.218 OA
HETATM   58  O4  GAL J   4      63.421  87.799  79.907  1.00 11.09    -0.218 OA
HETATM   59  C5  GAL J   4      64.729  88.109  77.904  1.00 12.47     0.184 C 
HETATM   60  O5  GAL J   4      64.879  86.697  77.725  1.00 13.45    -0.326 OA
BRANCH  59  61
HETATM   61  C6  GAL J   4      65.928  88.498  78.733  1.00 11.95     0.215 C 
HETATM   62  O6  GAL J   4      67.127  87.869  78.329  1.00 15.73    -0.218 OA
ENDBRANCH  59  61
ENDBRANCH  51  52
ENDBRANCH  42  51
BRANCH  44  63
HETATM   63  C6  NGA J   3      68.612  83.607  75.001  1.00 23.49     0.215 C 
HETATM   64  O6  NGA J   3      69.438  84.733  74.830  1.00 36.93    -0.218 OA
ENDBRANCH  44  63
ENDBRANCH  39  40
ENDBRANCH  15  39
BRANCH  16  65
HETATM   65  C6  GAL J   2      64.282  80.128  74.978  1.00 29.12     0.214 C 
HETATM   66  O6  GAL J   2      64.642  79.133  75.937  1.00 34.44    -0.218 OA
ENDBRANCH  16  65
ENDBRANCH  10  11
ENDBRANCH   3  10
BRANCH   4  67
HETATM   67  C6  BGC J   1      60.857  77.170  72.401  1.00 30.61     0.214 C 
HETATM   68  O6  BGC J   1      59.900  76.147  72.375  1.00 38.23    -0.218 OA
ENDBRANCH   4  67
TORSDOF 18
ENDMDL
MODEL 3
REMARK VINA RESULT:      -7.0      1.637      2.731
REMARK  18 active torsions:
REMARK  status: ('A' for Active; 'I' for Inactive)
REMARK    1  A    between atoms: C4_3  and  O4_10 
REMARK    2  A    between atoms: C5_4  and  C6_5 
REMARK    3  A    between atoms: O4_10  and  C1_13 
REMARK    4  A    between atoms: C3_15  and  O3_20 
REMARK    5  A    between atoms: C4_16  and  O4_21 
REMARK    6  A    between atoms: C5_17  and  C6_18 
REMARK    7  A    between atoms: O3_20  and  C2_50 
REMARK    8  A    between atoms: O4_21  and  C1_24 
REMARK    9  A    between atoms: C2_25  and  N2_32 
REMARK   10  A    between atoms: C3_26  and  O3_33 
REMARK   11  A    between atoms: C5_28  and  C6_29 
REMARK       I    between atoms: C7_30  and  N2_32 
REMARK   12  A    between atoms: O3_33  and  C1_38 
REMARK   13  A    between atoms: C5_42  and  C6_43 
REMARK   14  A    between atoms: C1_49  and  C2_50 
REMARK   15  A    between atoms: C5_53  and  N5_60 
REMARK   16  A    between atoms: C6_54  and  C7_55 
REMARK   17  A    between atoms: C7_55  and  C8_56 
REMARK   18  A    between atoms: C8_56  and  C9_57 
REMARK       I    between atoms: C10_58  and  N5_60 
ROOT
HETATM    1  C2  BGC J   1      59.643  81.141  71.101  1.00 33.73     0.244 C 
HETATM    2  C3  BGC J   1      60.996  80.651  70.601  1.00 34.22     0.217 C 
HETATM    3  C4  BGC J   1      61.534  79.544  71.522  1.00 35.62     0.181 C 
HETATM    4  C5  BGC J   1      60.499  78.430  71.613  1.00 33.72     0.181 C 
HETATM    5  C1  BGC J   1      58.634  80.037  71.376  1.00 35.29     0.303 C 
HETATM    6  O1  BGC J   1      57.529  80.477  72.177  1.00 22.52    -0.187 OA
HETATM    7  O2  BGC J   1      59.085  82.086  70.200  1.00 40.75    -0.215 OA
HETATM    8  O3  BGC J   1      61.938  81.732  70.580  1.00 32.08    -0.218 OA
HETATM    9  O5  BGC J   1      59.227  78.908  71.978  1.00 36.77    -0.324 OA
ENDROOT
BRANCH   3  10
HETATM   10  O4  BGC J   1      62.684  78.979  70.911  1.00 33.55    -0.326 OA
BRANCH  10  11
HETATM   11  C1  GAL J   2      63.907  78.878  71.640  1.00 29.50     0.270 C 
HETATM   12  C2  GAL J   2      64.987  79.677  70.954  1.00 27.02     0.238 C 
HETATM   13  C3  GAL J   2      66.216  79.911  71.847  1.00 23.05     0.183 C 
HETATM   14  O2  GAL J   2      65.443  78.960  69.814  1.00 31.87    -0.215 OA
HETATM   15  C4  GAL J   2      65.736  80.498  73.175  1.00 23.22     0.177 C 
HETATM   16  C5  GAL J   2      64.703  79.570  73.804  1.00 24.62     0.180 C 
HETATM   17  O5  GAL J   2      63.600  79.495  72.894  1.00 30.39    -0.326 OA
BRANCH  13  18
HETATM   18  O3  GAL J   2      66.982  80.908  71.160  1.00 25.06    -0.324 OA
BRANCH  18  19
HETATM   19  C2  SIA J   5      68.390  80.813  71.235  1.00 22.94     0.271 C 
HETATM   20  C3  SIA J   5      68.890  79.752  72.186  1.00 25.74     0.103 C 
HETATM   21  C4  SIA J   5      70.415  79.676  72.170  1.00 26.04     0.182 C 
HETATM   22  C5  SIA J   5      71.018  81.064  72.474  1.00 24.75     0.166 C 
HETATM   23  O4  SIA J   5      70.799  78.863  73.292  1.00 26.63    -0.221 OA
HETATM   24  C6  SIA J   5      70.413  82.067  71.498  1.00 22.50     0.176 C 
HETATM   25  O6  SIA J   5      68.960  82.075  71.606  1.00 22.65    -0.325 OA
BRANCH  19  26
HETATM   26  C1  SIA J   5      68.823  80.473  69.816  1.00 25.20     0.240 C 
HETATM   27  O1A SIA J   5      68.877  81.457  69.040  1.00 24.36    -0.644 OA
HETATM   28  O1B SIA J   5      69.032  79.269  69.546  1.00 23.37    -0.644 OA
ENDBRANCH  19  26
BRANCH  22  29
HETATM   29  N5  SIA J   5      72.463  80.930  72.380  1.00 21.56    -0.235 NA
HETATM   30  C10 SIA J   5      73.348  81.320  73.295  1.00 23.49     0.252 C 
HETATM   31  O10 SIA J   5      72.950  81.879  74.354  1.00 26.49    -0.271 OA
HETATM   32  C11 SIA J   5      74.788  81.049  72.855  1.00 20.70     0.100 C 
ENDBRANCH  22  29
BRANCH  24  33
HETATM   33  C7  SIA J   5      70.895  83.493  71.758  1.00 23.24     0.214 C 
HETATM   34  O7  SIA J   5      69.810  84.423  71.926  1.00 24.21    -0.218 OA
BRANCH  33  35
HETATM   35  C8  SIA J   5      71.734  83.898  70.551  1.00 24.66     0.218 C 
HETATM   36  O8  SIA J   5      71.751  82.822  69.639  1.00 20.98    -0.218 OA
BRANCH  35  37
HETATM   37  C9  SIA J   5      73.122  84.294  71.015  1.00 22.69     0.218 C 
HETATM   38  O9  SIA J   5      73.713  85.319  70.224  1.00 26.43    -0.218 OA
ENDBRANCH  35  37
ENDBRANCH  33  35
ENDBRANCH  24  33
ENDBRANCH  18  19
ENDBRANCH  13  18
BRANCH  15  39
HETATM   39  O4  GAL J   2      65.090  81.747  72.967  1.00 22.03    -0.327 OA
BRANCH  39  40
HETATM   40  C1  NGA J   3      65.810  82.850  73.483  1.00 22.91     0.262 C 
HETATM   41  C2  NGA J   3      64.909  83.544  74.514  1.00 21.55     0.192 C 
HETATM   42  C3  NGA J   3      65.694  84.617  75.198  1.00 19.57     0.178 C 
HETATM   43  C4  NGA J   3      67.046  84.156  75.745  1.00 18.76     0.211 C 
HETATM   44  C5  NGA J   3      67.813  83.463  74.637  1.00 22.49     0.184 C 
HETATM   45  O4  NGA J   3      66.868  83.328  76.881  1.00 22.74    -0.218 OA
HETATM   46  O5  NGA J   3      67.004  82.389  74.126  1.00 25.46    -0.327 OA
BRANCH  41  47
HETATM   47  N2  NGA J   3      63.711  83.910  73.781  1.00 24.00    -0.232 NA
HETATM   48  C7  NGA J   3      62.475  83.674  74.269  1.00 26.74     0.252 C 
HETATM   49  C8  NGA J   3      61.415  84.005  73.216  1.00 22.43     0.100 C 
HETATM   50  O7  NGA J   3      62.291  83.183  75.424  1.00 22.79    -0.271 OA
ENDBRANCH  41  47
BRANCH  42  51
HETATM   51  O3  NGA J   3      64.952  85.229  76.240  1.00 17.99    -0.327 OA
BRANCH  51  52
HETATM   52  C1  GAL J   4      65.080  86.633  76.274  1.00 14.14     0.270 C 
HETATM   53  C2  GAL J   4      63.731  87.223  76.619  1.00 12.92     0.241 C 
HETATM   54  C3  GAL J   4      63.807  88.737  76.771  1.00 11.17     0.220 C 
HETATM   55  O2  GAL J   4      62.746  86.875  75.668  1.00 13.46    -0.215 OA
HETATM   56  C4  GAL J   4      64.904  89.052  77.791  1.00 11.62     0.215 C 
HETATM   57  O3  GAL J   4      62.561  89.225  77.210  1.00 11.38    -0.218 OA
HETATM   58  O4  GAL J   4      64.487  88.650  79.089  1.00 11.09    -0.218 OA
HETATM   59  C5  GAL J   4      66.201  88.359  77.416  1.00 12.47     0.184 C 
HETATM   60  O5  GAL J   4      65.972  86.947  77.356  1.00 13.45    -0.326 OA
BRANCH  59  61
HETATM   61  C6  GAL J   4      67.271  88.507  78.470  1.00 11.95     0.215 C 
HETATM   62  O6  GAL J   4      68.500  88.989  77.968  1.00 15.73    -0.218 OA
ENDBRANCH  59  61
ENDBRANCH  51  52
ENDBRANCH  42  51
BRANCH  44  63
HETATM   63  C6  NGA J   3      69.155  82.940  75.093  1.00 23.49     0.215 C 
HETATM   64  O6  NGA J   3      69.961  83.960  75.630  1.00 36.93    -0.218 OA
ENDBRANCH  44  63
ENDBRANCH  39  40
ENDBRANCH  15  39
BRANCH  16  65
HETATM   65  C6  GAL J   2      64.187  80.169  75.125  1.00 29.12     0.214 C 
HETATM   66  O6  GAL J   2      64.604  79.351  76.219  1.00 34.44    -0.218 OA
ENDBRANCH  16  65
ENDBRANCH  10  11
ENDBRANCH   3  10
BRANCH   4  67
HETATM   67  C6  BGC J   1      60.912  77.193  72.420  1.00 30.61     0.214 C 
HETATM   68  O6  BGC J   1      59.973  76.156  72.345  1.00 38.23    -0.218 OA
ENDBRANCH   4  67
TORSDOF 18
ENDMDL
MODEL 4
REMARK VINA RESULT:      -6.5      3.925     10.102
REMARK  18 active torsions:
REMARK  status: ('A' for Active; 'I' for Inactive)
REMARK    1  A    between atoms: C4_3  and  O4_10 
REMARK    2  A    between atoms: C5_4  and  C6_5 
REMARK    3  A    between atoms: O4_10  and  C1_13 
REMARK    4  A    between atoms: C3_15  and  O3_20 
REMARK    5  A    between atoms: C4_16  and  O4_21 
REMARK    6  A    between atoms: C5_17  and  C6_18 
REMARK    7  A    between atoms: O3_20  and  C2_50 
REMARK    8  A    between atoms: O4_21  and  C1_24 
REMARK    9  A    between atoms: C2_25  and  N2_32 
REMARK   10  A    between atoms: C3_26  and  O3_33 
REMARK   11  A    between atoms: C5_28  and  C6_29 
REMARK       I    between atoms: C7_30  and  N2_32 
REMARK   12  A    between atoms: O3_33  and  C1_38 
REMARK   13  A    between atoms: C5_42  and  C6_43 
REMARK   14  A    between atoms: C1_49  and  C2_50 
REMARK   15  A    between atoms: C5_53  and  N5_60 
REMARK   16  A    between atoms: C6_54  and  C7_55 
REMARK   17  A    between atoms: C7_55  and  C8_56 
REMARK   18  A    between atoms: C8_56  and  C9_57 
REMARK       I    between atoms: C10_58  and  N5_60 
ROOT
HETATM    1  C2  BGC J   1      60.648  89.274  77.977  1.00 33.73     0.244 C 
HETATM    2  C3  BGC J   1      60.311  88.839  76.557  1.00 34.22     0.217 C 
HETATM    3  C4  BGC J   1      59.889  87.361  76.540  1.00 35.62     0.181 C 
HETATM    4  C5  BGC J   1      58.728  87.167  77.509  1.00 33.72     0.181 C 
HETATM    5  C1  BGC J   1      59.586  88.935  79.010  1.00 35.29     0.303 C 
HETATM    6  O1  BGC J   1      60.071  89.014  80.358  1.00 22.52    -0.187 OA
HETATM    7  O2  BGC J   1      60.935  90.664  78.023  1.00 40.75    -0.215 OA
HETATM    8  O3  BGC J   1      61.452  89.001  75.703  1.00 32.08    -0.218 OA
HETATM    9  O5  BGC J   1      59.014  87.665  78.794  1.00 36.77    -0.324 OA
ENDROOT
BRANCH   3  10
HETATM   10  O4  BGC J   1      59.390  87.056  75.246  1.00 33.55    -0.326 OA
BRANCH  10  11
HETATM   11  C1  GAL J   2      60.150  86.236  74.359  1.00 29.50     0.270 C 
HETATM   12  C2  GAL J   2      61.001  85.271  75.146  1.00 27.02     0.238 C 
HETATM   13  C3  GAL J   2      61.569  84.133  74.283  1.00 23.05     0.183 C 
HETATM   14  O2  GAL J   2      62.117  85.968  75.685  1.00 31.87    -0.215 OA
HETATM   15  C4  GAL J   2      60.409  83.487  73.524  1.00 23.22     0.177 C 
HETATM   16  C5  GAL J   2      59.670  84.546  72.714  1.00 24.62     0.180 C 
HETATM   17  O5  GAL J   2      59.152  85.499  73.647  1.00 30.39    -0.326 OA
BRANCH  13  18
HETATM   18  O3  GAL J   2      62.082  83.182  75.223  1.00 25.06    -0.324 OA
BRANCH  18  19
HETATM   19  C2  SIA J   5      63.382  82.677  74.993  1.00 22.94     0.271 C 
HETATM   20  C3  SIA J   5      64.493  83.609  75.413  1.00 25.74     0.103 C 
HETATM   21  C4  SIA J   5      65.861  82.970  75.182  1.00 26.04     0.182 C 
HETATM   22  C5  SIA J   5      65.996  82.525  73.711  1.00 24.75     0.166 C 
HETATM   23  O4  SIA J   5      66.835  84.017  75.332  1.00 26.63    -0.221 OA
HETATM   24  C6  SIA J   5      64.805  81.634  73.375  1.00 22.50     0.176 C 
HETATM   25  O6  SIA J   5      63.554  82.342  73.610  1.00 22.65    -0.325 OA
BRANCH  19  26
HETATM   26  C1  SIA J   5      63.444  81.401  75.822  1.00 25.20     0.240 C 
HETATM   27  O1A SIA J   5      62.778  80.446  75.355  1.00 24.36    -0.644 OA
HETATM   28  O1B SIA J   5      64.097  81.434  76.889  1.00 23.37    -0.644 OA
ENDBRANCH  19  26
BRANCH  22  29
HETATM   29  N5  SIA J   5      67.290  81.873  73.581  1.00 21.56    -0.235 NA
HETATM   30  C10 SIA J   5      68.200  82.117  72.641  1.00 23.49     0.252 C 
HETATM   31  O10 SIA J   5      67.962  82.972  71.744  1.00 26.49    -0.271 OA
HETATM   32  C11 SIA J   5      69.436  81.227  72.792  1.00 20.70     0.100 C 
ENDBRANCH  22  29
BRANCH  24  33
HETATM   33  C7  SIA J   5      64.807  81.191  71.913  1.00 23.24     0.214 C 
HETATM   34  O7  SIA J   5      63.604  81.567  71.217  1.00 24.21    -0.218 OA
BRANCH  33  35
HETATM   35  C8  SIA J   5      64.942  79.672  71.916  1.00 24.66     0.218 C 
HETATM   36  O8  SIA J   5      64.962  79.230  73.256  1.00 20.98    -0.218 OA
BRANCH  35  37
HETATM   37  C9  SIA J   5      66.189  79.277  71.151  1.00 22.69     0.218 C 
HETATM   38  O9  SIA J   5      66.044  79.380  69.739  1.00 26.43    -0.218 OA
ENDBRANCH  35  37
ENDBRANCH  33  35
ENDBRANCH  24  33
ENDBRANCH  18  19
ENDBRANCH  13  18
BRANCH  15  39
HETATM   39  O4  GAL J   2      59.464  82.933  74.430  1.00 22.03    -0.327 OA
BRANCH  39  40
HETATM   40  C1  NGA J   3      59.380  81.522  74.367  1.00 22.91     0.262 C 
HETATM   41  C2  NGA J   3      57.905  81.159  74.150  1.00 21.55     0.192 C 
HETATM   42  C3  NGA J   3      57.798  79.685  73.918  1.00 19.57     0.178 C 
HETATM   43  C4  NGA J   3      58.749  79.147  72.847  1.00 18.76     0.211 C 
HETATM   44  C5  NGA J   3      60.158  79.605  73.167  1.00 22.49     0.184 C 
HETATM   45  O4  NGA J   3      58.327  79.551  71.557  1.00 22.74    -0.218 OA
HETATM   46  O5  NGA J   3      60.159  81.040  73.266  1.00 25.46    -0.327 OA
BRANCH  41  47
HETATM   47  N2  NGA J   3      57.203  81.744  75.277  1.00 24.00    -0.232 NA
HETATM   48  C7  NGA J   3      56.203  82.635  75.112  1.00 26.74     0.252 C 
HETATM   49  C8  NGA J   3      55.769  83.206  76.463  1.00 22.43     0.100 C 
HETATM   50  O7  NGA J   3      55.773  82.957  73.962  1.00 22.79    -0.271 OA
ENDBRANCH  41  47
BRANCH  42  51
HETATM   51  O3  NGA J   3      56.471  79.297  73.603  1.00 17.99    -0.327 OA
BRANCH  51  52
HETATM   52  C1  GAL J   4      55.942  78.333  74.485  1.00 14.14     0.270 C 
HETATM   53  C2  GAL J   4      54.483  78.657  74.720  1.00 12.92     0.241 C 
HETATM   54  C3  GAL J   4      53.811  77.602  75.591  1.00 11.17     0.220 C 
HETATM   55  O2  GAL J   4      54.314  79.940  75.287  1.00 13.46    -0.215 OA
HETATM   56  C4  GAL J   4      54.050  76.237  74.941  1.00 11.62     0.215 C 
HETATM   57  O3  GAL J   4      52.433  77.880  75.679  1.00 11.38    -0.218 OA
HETATM   58  O4  GAL J   4      53.304  76.137  73.736  1.00 11.09    -0.218 OA
HETATM   59  C5  GAL J   4      55.527  76.023  74.666  1.00 12.47     0.184 C 
HETATM   60  O5  GAL J   4      55.993  77.068  73.806  1.00 13.45    -0.326 OA
BRANCH  59  61
HETATM   61  C6  GAL J   4      55.802  74.762  73.884  1.00 11.95     0.215 C 
HETATM   62  O6  GAL J   4      56.798  73.943  74.460  1.00 15.73    -0.218 OA
ENDBRANCH  59  61
ENDBRANCH  51  52
ENDBRANCH  42  51
BRANCH  44  63
HETATM   63  C6  NGA J   3      61.169  79.147  72.142  1.00 23.49     0.215 C 
HETATM   64  O6  NGA J   3      61.859  77.996  72.563  1.00 36.93    -0.218 OA
ENDBRANCH  44  63
ENDBRANCH  39  40
ENDBRANCH  15  39
BRANCH  16  65
HETATM   65  C6  GAL J   2      58.479  83.911  71.973  1.00 29.12     0.214 C 
HETATM   66  O6  GAL J   2      58.956  83.132  70.875  1.00 34.44    -0.218 OA
ENDBRANCH  16  65
ENDBRANCH  10  11
ENDBRANCH   3  10
BRANCH   4  67
HETATM   67  C6  BGC J   1      58.114  85.762  77.550  1.00 30.61     0.214 C 
HETATM   68  O6  BGC J   1      58.128  85.200  78.833  1.00 38.23    -0.218 OA
ENDBRANCH   4  67
TORSDOF 18
ENDMDL
MODEL 5
REMARK VINA RESULT:      -6.4      2.897     10.523
REMARK  18 active torsions:
REMARK  status: ('A' for Active; 'I' for Inactive)
REMARK    1  A    between atoms: C4_3  and  O4_10 
REMARK    2  A    between atoms: C5_4  and  C6_5 
REMARK    3  A    between atoms: O4_10  and  C1_13 
REMARK    4  A    between atoms: C3_15  and  O3_20 
REMARK    5  A    between atoms: C4_16  and  O4_21 
REMARK    6  A    between atoms: C5_17  and  C6_18 
REMARK    7  A    between atoms: O3_20  and  C2_50 
REMARK    8  A    between atoms: O4_21  and  C1_24 
REMARK    9  A    between atoms: C2_25  and  N2_32 
REMARK   10  A    between atoms: C3_26  and  O3_33 
REMARK   11  A    between atoms: C5_28  and  C6_29 
REMARK       I    between atoms: C7_30  and  N2_32 
REMARK   12  A    between atoms: O3_33  and  C1_38 
REMARK   13  A    between atoms: C5_42  and  C6_43 
REMARK   14  A    between atoms: C1_49  and  C2_50 
REMARK   15  A    between atoms: C5_53  and  N5_60 
REMARK   16  A    between atoms: C6_54  and  C7_55 
REMARK   17  A    between atoms: C7_55  and  C8_56 
REMARK   18  A    between atoms: C8_56  and  C9_57 
REMARK       I    between atoms: C10_58  and  N5_60 
ROOT
HETATM    1  C2  BGC J   1      63.295  87.560  78.698  1.00 33.73     0.244 C 
HETATM    2  C3  BGC J   1      63.159  86.869  77.348  1.00 34.22     0.217 C 
HETATM    3  C4  BGC J   1      61.828  86.103  77.275  1.00 35.62     0.181 C 
HETATM    4  C5  BGC J   1      60.685  87.069  77.563  1.00 33.72     0.181 C 
HETATM    5  C1  BGC J   1      62.092  88.396  79.104  1.00 35.29     0.303 C 
HETATM    6  O1  BGC J   1      62.085  88.725  80.500  1.00 22.52    -0.187 OA
HETATM    7  O2  BGC J   1      64.469  88.360  78.739  1.00 40.75    -0.215 OA
HETATM    8  O3  BGC J   1      64.236  85.941  77.154  1.00 32.08    -0.218 OA
HETATM    9  O5  BGC J   1      60.872  87.777  78.764  1.00 36.77    -0.324 OA
ENDROOT
BRANCH   3  10
HETATM   10  O4  BGC J   1      61.649  85.650  75.942  1.00 33.55    -0.326 OA
BRANCH  10  11
HETATM   11  C1  GAL J   2      61.277  84.296  75.688  1.00 29.50     0.270 C 
HETATM   12  C2  GAL J   2      60.719  84.164  74.293  1.00 27.02     0.238 C 
HETATM   13  C3  GAL J   2      60.629  82.704  73.820  1.00 23.05     0.183 C 
HETATM   14  O2  GAL J   2      59.394  84.680  74.271  1.00 31.87    -0.215 OA
HETATM   15  C4  GAL J   2      61.997  82.052  74.023  1.00 23.22     0.177 C 
HETATM   16  C5  GAL J   2      62.421  82.188  75.482  1.00 24.62     0.180 C 
HETATM   17  O5  GAL J   2      62.519  83.589  75.759  1.00 30.39    -0.326 OA
BRANCH  13  18
HETATM   18  O3  GAL J   2      60.371  82.791  72.414  1.00 25.06    -0.324 OA
BRANCH  18  19
HETATM   19  C2  SIA J   5      59.216  82.142  71.923  1.00 22.94     0.271 C 
HETATM   20  C3  SIA J   5      58.466  82.923  70.871  1.00 25.74     0.103 C 
HETATM   21  C4  SIA J   5      57.264  82.134  70.355  1.00 26.04     0.182 C 
HETATM   22  C5  SIA J   5      56.357  81.720  71.533  1.00 24.75     0.166 C 
HETATM   23  O4  SIA J   5      56.465  83.053  69.591  1.00 26.63    -0.221 OA
HETATM   24  C6  SIA J   5      57.216  80.987  72.557  1.00 22.50     0.176 C 
HETATM   25  O6  SIA J   5      58.319  81.831  72.998  1.00 22.65    -0.325 OA
BRANCH  19  26
HETATM   26  C1  SIA J   5      59.736  80.843  71.323  1.00 25.20     0.240 C 
HETATM   27  O1A SIA J   5      59.798  79.886  72.130  1.00 24.36    -0.644 OA
HETATM   28  O1B SIA J   5      60.091  80.861  70.123  1.00 23.37    -0.644 OA
ENDBRANCH  19  26
BRANCH  22  29
HETATM   29  N5  SIA J   5      55.274  80.924  70.976  1.00 21.56    -0.235 NA
HETATM   30  C10 SIA J   5      53.972  81.157  71.126  1.00 23.49     0.252 C 
HETATM   31  O10 SIA J   5      53.586  82.137  71.821  1.00 26.49    -0.271 OA
HETATM   32  C11 SIA J   5      53.114  80.100  70.426  1.00 20.70     0.100 C 
ENDBRANCH  22  29
BRANCH  24  33
HETATM   33  C7  SIA J   5      56.423  80.591  73.801  1.00 23.24     0.214 C 
HETATM   34  O7  SIA J   5      56.553  81.547  74.869  1.00 24.21    -0.218 OA
BRANCH  33  35
HETATM   35  C8  SIA J   5      56.967  79.240  74.255  1.00 24.66     0.218 C 
HETATM   36  O8  SIA J   5      57.323  78.496  73.111  1.00 20.98    -0.218 OA
BRANCH  35  37
HETATM   37  C9  SIA J   5      55.926  78.542  75.107  1.00 22.69     0.218 C 
HETATM   38  O9  SIA J   5      56.143  78.693  76.505  1.00 26.43    -0.218 OA
ENDBRANCH  35  37
ENDBRANCH  33  35
ENDBRANCH  24  33
ENDBRANCH  18  19
ENDBRANCH  13  18
BRANCH  15  39
HETATM   39  O4  GAL J   2      62.987  82.714  73.247  1.00 22.03    -0.327 OA
BRANCH  39  40
HETATM   40  C1  NGA J   3      63.559  81.897  72.243  1.00 22.91     0.262 C 
HETATM   41  C2  NGA J   3      65.071  81.851  72.494  1.00 21.55     0.192 C 
HETATM   42  C3  NGA J   3      65.690  80.869  71.550  1.00 19.57     0.178 C 
HETATM   43  C4  NGA J   3      65.007  79.500  71.531  1.00 18.76     0.211 C 
HETATM   44  C5  NGA J   3      63.520  79.696  71.308  1.00 22.49     0.184 C 
HETATM   45  O4  NGA J   3      65.287  78.787  72.722  1.00 22.74    -0.218 OA
HETATM   46  O5  NGA J   3      63.019  80.573  72.331  1.00 25.46    -0.327 OA
BRANCH  41  47
HETATM   47  N2  NGA J   3      65.504  83.236  72.447  1.00 24.00    -0.232 NA
HETATM   48  C7  NGA J   3      66.255  83.783  73.426  1.00 26.74     0.252 C 
HETATM   49  C8  NGA J   3      66.413  85.287  73.197  1.00 22.43     0.100 C 
HETATM   50  O7  NGA J   3      66.684  83.100  74.405  1.00 22.79    -0.271 OA
ENDBRANCH  41  47
BRANCH  42  51
HETATM   51  O3  NGA J   3      67.074  80.698  71.801  1.00 17.99    -0.327 OA
BRANCH  51  52
HETATM   52  C1  GAL J   4      67.868  80.746  70.637  1.00 14.14     0.270 C 
HETATM   53  C2  GAL J   4      68.936  81.799  70.835  1.00 12.92     0.241 C 
HETATM   54  C3  GAL J   4      69.899  81.846  69.655  1.00 11.17     0.220 C 
HETATM   55  O2  GAL J   4      68.379  83.076  71.065  1.00 13.46    -0.215 OA
HETATM   56  C4  GAL J   4      70.448  80.433  69.441  1.00 11.62     0.215 C 
HETATM   57  O3  GAL J   4      70.940  82.750  69.939  1.00 11.38    -0.218 OA
HETATM   58  O4  GAL J   4      71.316  80.085  70.510  1.00 11.09    -0.218 OA
HETATM   59  C5  GAL J   4      69.317  79.428  69.332  1.00 12.47     0.184 C 
HETATM   60  O5  GAL J   4      68.535  79.477  70.529  1.00 13.45    -0.326 OA
BRANCH  59  61
HETATM   61  C6  GAL J   4      69.804  78.000  69.277  1.00 11.95     0.215 C 
HETATM   62  O6  GAL J   4      70.439  77.662  68.061  1.00 15.73    -0.218 OA
ENDBRANCH  59  61
ENDBRANCH  51  52
ENDBRANCH  42  51
BRANCH  44  63
HETATM   63  C6  NGA J   3      62.753  78.395  71.307  1.00 23.49     0.215 C 
HETATM   64  O6  NGA J   3      62.135  78.151  70.067  1.00 36.93    -0.218 OA
ENDBRANCH  44  63
ENDBRANCH  39  40
ENDBRANCH  15  39
BRANCH  16  65
HETATM   65  C6  GAL J   2      63.814  81.565  75.689  1.00 29.12     0.214 C 
HETATM   66  O6  GAL J   2      64.496  82.252  76.739  1.00 34.44    -0.218 OA
ENDBRANCH  16  65
ENDBRANCH  10  11
ENDBRANCH   3  10
BRANCH   4  67
HETATM   67  C6  BGC J   1      59.270  86.491  77.438  1.00 30.61     0.214 C 
HETATM   68  O6  BGC J   1      58.681  86.224  78.680  1.00 38.23    -0.218 OA
ENDBRANCH   4  67
TORSDOF 18
ENDMDL
MODEL 6
REMARK VINA RESULT:      -6.3      2.259      7.461
REMARK  18 active torsions:
REMARK  status: ('A' for Active; 'I' for Inactive)
REMARK    1  A    between atoms: C4_3  and  O4_10 
REMARK    2  A    between atoms: C5_4  and  C6_5 
REMARK    3  A    between atoms: O4_10  and  C1_13 
REMARK    4  A    between atoms: C3_15  and  O3_20 
REMARK    5  A    between atoms: C4_16  and  O4_21 
REMARK    6  A    between atoms: C5_17  and  C6_18 
REMARK    7  A    between atoms: O3_20  and  C2_50 
REMARK    8  A    between atoms: O4_21  and  C1_24 
REMARK    9  A    between atoms: C2_25  and  N2_32 
REMARK   10  A    between atoms: C3_26  and  O3_33 
REMARK   11  A    between atoms: C5_28  and  C6_29 
REMARK       I    between atoms: C7_30  and  N2_32 
REMARK   12  A    between atoms: O3_33  and  C1_38 
REMARK   13  A    between atoms: C5_42  and  C6_43 
REMARK   14  A    between atoms: C1_49  and  C2_50 
REMARK   15  A    between atoms: C5_53  and  N5_60 
REMARK   16  A    between atoms: C6_54  and  C7_55 
REMARK   17  A    between atoms: C7_55  and  C8_56 
REMARK   18  A    between atoms: C8_56  and  C9_57 
REMARK       I    between atoms: C10_58  and  N5_60 
ROOT
HETATM    1  C2  BGC J   1      57.004  82.445  70.948  1.00 33.73     0.244 C 
HETATM    2  C3  BGC J   1      58.479  82.731  70.703  1.00 34.22     0.217 C 
HETATM    3  C4  BGC J   1      59.316  82.278  71.911  1.00 35.62     0.181 C 
HETATM    4  C5  BGC J   1      59.036  80.805  72.181  1.00 33.72     0.181 C 
HETATM    5  C1  BGC J   1      56.701  81.024  71.396  1.00 35.29     0.303 C 
HETATM    6  O1  BGC J   1      55.392  80.884  71.965  1.00 22.52    -0.187 OA
HETATM    7  O2  BGC J   1      56.232  82.759  69.798  1.00 40.75    -0.215 OA
HETATM    8  O3  BGC J   1      58.686  84.136  70.501  1.00 32.08    -0.218 OA
HETATM    9  O5  BGC J   1      57.661  80.534  72.305  1.00 36.77    -0.324 OA
ENDROOT
BRANCH   3  10
HETATM   10  O4  BGC J   1      60.688  82.371  71.561  1.00 33.55    -0.326 OA
BRANCH  10  11
HETATM   11  C1  GAL J   2      61.479  83.457  72.041  1.00 29.50     0.270 C 
HETATM   12  C2  GAL J   2      62.451  82.969  73.086  1.00 27.02     0.238 C 
HETATM   13  C3  GAL J   2      63.563  83.986  73.390  1.00 23.05     0.183 C 
HETATM   14  O2  GAL J   2      61.753  82.753  74.306  1.00 31.87    -0.215 OA
HETATM   15  C4  GAL J   2      64.206  84.399  72.065  1.00 23.22     0.177 C 
HETATM   16  C5  GAL J   2      63.138  84.939  71.121  1.00 24.62     0.180 C 
HETATM   17  O5  GAL J   2      62.212  83.874  70.885  1.00 30.39    -0.326 OA
BRANCH  13  18
HETATM   18  O3  GAL J   2      64.529  83.254  74.154  1.00 25.06    -0.324 OA
BRANCH  18  19
HETATM   19  C2  SIA J   5      65.245  83.961  75.145  1.00 22.94     0.271 C 
HETATM   20  C3  SIA J   5      65.108  85.462  75.057  1.00 25.74     0.103 C 
HETATM   21  C4  SIA J   5      65.866  86.151  76.191  1.00 26.04     0.182 C 
HETATM   22  C5  SIA J   5      67.341  85.697  76.194  1.00 24.75     0.166 C 
HETATM   23  O4  SIA J   5      65.919  87.549  75.862  1.00 26.63    -0.221 OA
HETATM   24  C6  SIA J   5      67.368  84.173  76.233  1.00 22.50     0.176 C 
HETATM   25  O6  SIA J   5      66.637  83.619  75.101  1.00 22.65    -0.325 OA
BRANCH  19  26
HETATM   26  C1  SIA J   5      64.657  83.471  76.461  1.00 25.20     0.240 C 
HETATM   27  O1A SIA J   5      64.139  84.370  77.166  1.00 24.36    -0.644 OA
HETATM   28  O1B SIA J   5      64.781  82.256  76.735  1.00 23.37    -0.644 OA
ENDBRANCH  19  26
BRANCH  22  29
HETATM   29  N5  SIA J   5      67.981  86.339  77.332  1.00 21.56    -0.235 NA
HETATM   30  C10 SIA J   5      68.833  87.360  77.278  1.00 23.49     0.252 C 
HETATM   31  O10 SIA J   5      69.165  87.843  76.160  1.00 26.49    -0.271 OA
HETATM   32  C11 SIA J   5      69.333  87.766  78.666  1.00 20.70     0.100 C 
ENDBRANCH  22  29
BRANCH  24  33
HETATM   33  C7  SIA J   5      68.789  83.617  76.171  1.00 23.24     0.214 C 
HETATM   34  O7  SIA J   5      69.430  83.590  77.459  1.00 24.21    -0.218 OA
BRANCH  33  35
HETATM   35  C8  SIA J   5      69.574  84.523  75.228  1.00 24.66     0.218 C 
HETATM   36  O8  SIA J   5      69.558  83.946  73.941  1.00 20.98    -0.218 OA
BRANCH  35  37
HETATM   37  C9  SIA J   5      70.977  84.713  75.767  1.00 22.69     0.218 C 
HETATM   38  O9  SIA J   5      71.924  83.807  75.214  1.00 26.43    -0.218 OA
ENDBRANCH  35  37
ENDBRANCH  33  35
ENDBRANCH  24  33
ENDBRANCH  18  19
ENDBRANCH  13  18
BRANCH  15  39
HETATM   39  O4  GAL J   2      64.791  83.276  71.420  1.00 22.03    -0.327 OA
BRANCH  39  40
HETATM   40  C1  NGA J   3      66.205  83.263  71.477  1.00 22.91     0.262 C 
HETATM   41  C2  NGA J   3      66.678  81.953  70.834  1.00 21.55     0.192 C 
HETATM   42  C3  NGA J   3      68.171  81.975  70.731  1.00 19.57     0.178 C 
HETATM   43  C4  NGA J   3      68.736  83.241  70.084  1.00 18.76     0.211 C 
HETATM   44  C5  NGA J   3      68.164  84.452  70.792  1.00 22.49     0.184 C 
HETATM   45  O4  NGA J   3      68.472  83.250  68.693  1.00 22.74    -0.218 OA
HETATM   46  O5  NGA J   3      66.729  84.374  70.739  1.00 25.46    -0.327 OA
BRANCH  41  47
HETATM   47  N2  NGA J   3      66.045  80.902  71.611  1.00 24.00    -0.232 NA
HETATM   48  C7  NGA J   3      65.508  79.810  71.028  1.00 26.74     0.252 C 
HETATM   49  C8  NGA J   3      64.766  78.964  72.066  1.00 22.43     0.100 C 
HETATM   50  O7  NGA J   3      65.588  79.606  69.779  1.00 22.79    -0.271 OA
ENDBRANCH  41  47
BRANCH  42  51
HETATM   51  O3  NGA J   3      68.668  80.837  70.047  1.00 17.99    -0.327 OA
BRANCH  51  52
HETATM   52  C1  GAL J   4      69.428  79.976  70.864  1.00 14.14     0.270 C 
HETATM   53  C2  GAL J   4      70.726  79.670  70.150  1.00 12.92     0.241 C 
HETATM   54  C3  GAL J   4      71.649  78.818  71.013  1.00 11.17     0.220 C 
HETATM   55  O2  GAL J   4      70.505  79.044  68.903  1.00 13.46    -0.215 OA
HETATM   56  C4  GAL J   4      71.830  79.533  72.354  1.00 11.62     0.215 C 
HETATM   57  O3  GAL J   4      72.887  78.663  70.358  1.00 11.38    -0.218 OA
HETATM   58  O4  GAL J   4      72.604  80.711  72.174  1.00 11.09    -0.218 OA
HETATM   59  C5  GAL J   4      70.484  79.876  72.965  1.00 12.47     0.184 C 
HETATM   60  O5  GAL J   4      69.760  80.710  72.054  1.00 13.45    -0.326 OA
BRANCH  59  61
HETATM   61  C6  GAL J   4      70.603  80.720  74.211  1.00 11.95     0.215 C 
HETATM   62  O6  GAL J   4      71.271  80.074  75.274  1.00 15.73    -0.218 OA
ENDBRANCH  59  61
ENDBRANCH  51  52
ENDBRANCH  42  51
BRANCH  44  63
HETATM   63  C6  NGA J   3      68.641  85.756  70.199  1.00 23.49     0.215 C 
HETATM   64  O6  NGA J   3      67.587  86.491  69.627  1.00 36.93    -0.218 OA
ENDBRANCH  44  63
ENDBRANCH  39  40
ENDBRANCH  15  39
BRANCH  16  65
HETATM   65  C6  GAL J   2      63.770  85.326  69.772  1.00 29.12     0.214 C 
HETATM   66  O6  GAL J   2      62.757  85.802  68.884  1.00 34.44    -0.218 OA
ENDBRANCH  16  65
ENDBRANCH  10  11
ENDBRANCH   3  10
BRANCH   4  67
HETATM   67  C6  BGC J   1      59.862  80.157  73.300  1.00 30.61     0.214 C 
HETATM   68  O6  BGC J   1      60.755  79.189  72.826  1.00 38.23    -0.218 OA
ENDBRANCH   4  67
TORSDOF 18
ENDMDL
MODEL 7
REMARK VINA RESULT:      -6.3      6.432     10.468
REMARK  18 active torsions:
REMARK  status: ('A' for Active; 'I' for Inactive)
REMARK    1  A    between atoms: C4_3  and  O4_10 
REMARK    2  A    between atoms: C5_4  and  C6_5 
REMARK    3  A    between atoms: O4_10  and  C1_13 
REMARK    4  A    between atoms: C3_15  and  O3_20 
REMARK    5  A    between atoms: C4_16  and  O4_21 
REMARK    6  A    between atoms: C5_17  and  C6_18 
REMARK    7  A    between atoms: O3_20  and  C2_50 
REMARK    8  A    between atoms: O4_21  and  C1_24 
REMARK    9  A    between atoms: C2_25  and  N2_32 
REMARK   10  A    between atoms: C3_26  and  O3_33 
REMARK   11  A    between atoms: C5_28  and  C6_29 
REMARK       I    between atoms: C7_30  and  N2_32 
REMARK   12  A    between atoms: O3_33  and  C1_38 
REMARK   13  A    between atoms: C5_42  and  C6_43 
REMARK   14  A    between atoms: C1_49  and  C2_50 
REMARK   15  A    between atoms: C5_53  and  N5_60 
REMARK   16  A    between atoms: C6_54  and  C7_55 
REMARK   17  A    between atoms: C7_55  and  C8_56 
REMARK   18  A    between atoms: C8_56  and  C9_57 
REMARK       I    between atoms: C10_58  and  N5_60 
ROOT
HETATM    1  C2  BGC J   1      55.610  74.654  75.677  1.00 33.73     0.244 C 
HETATM    2  C3  BGC J   1      55.980  75.940  74.951  1.00 34.22     0.217 C 
HETATM    3  C4  BGC J   1      54.713  76.646  74.441  1.00 35.62     0.181 C 
HETATM    4  C5  BGC J   1      53.771  76.880  75.617  1.00 33.72     0.181 C 
HETATM    5  C1  BGC J   1      54.537  74.815  76.742  1.00 35.29     0.303 C 
HETATM    6  O1  BGC J   1      53.954  73.567  77.141  1.00 22.52    -0.187 OA
HETATM    7  O2  BGC J   1      56.762  74.048  76.246  1.00 40.75    -0.215 OA
HETATM    8  O3  BGC J   1      56.828  75.652  73.831  1.00 32.08    -0.218 OA
HETATM    9  O5  BGC J   1      53.516  75.702  76.342  1.00 36.77    -0.324 OA
ENDROOT
BRANCH   3  10
HETATM   10  O4  BGC J   1      55.082  77.929  73.958  1.00 33.55    -0.326 OA
BRANCH  10  11
HETATM   11  C1  GAL J   2      56.164  78.638  74.561  1.00 29.50     0.270 C 
HETATM   12  C2  GAL J   2      56.820  79.541  73.547  1.00 27.02     0.238 C 
HETATM   13  C3  GAL J   2      57.746  80.587  74.189  1.00 23.05     0.183 C 
HETATM   14  O2  GAL J   2      57.632  78.757  72.682  1.00 31.87    -0.215 OA
HETATM   15  C4  GAL J   2      56.958  81.318  75.277  1.00 23.22     0.177 C 
HETATM   16  C5  GAL J   2      56.405  80.309  76.277  1.00 24.62     0.180 C 
HETATM   17  O5  GAL J   2      55.522  79.445  75.553  1.00 30.39    -0.326 OA
BRANCH  13  18
HETATM   18  O3  GAL J   2      58.034  81.515  73.136  1.00 25.06    -0.324 OA
BRANCH  18  19
HETATM   19  C2  SIA J   5      59.392  81.721  72.805  1.00 22.94     0.271 C 
HETATM   20  C3  SIA J   5      59.885  80.877  71.654  1.00 25.74     0.103 C 
HETATM   21  C4  SIA J   5      61.342  81.196  71.324  1.00 26.04     0.182 C 
HETATM   22  C5  SIA J   5      62.218  81.035  72.585  1.00 24.75     0.166 C 
HETATM   23  O4  SIA J   5      61.799  80.163  70.434  1.00 26.63    -0.221 OA
HETATM   24  C6  SIA J   5      61.609  81.884  73.696  1.00 22.50     0.176 C 
HETATM   25  O6  SIA J   5      60.230  81.487  73.945  1.00 22.65    -0.325 OA
BRANCH  19  26
HETATM   26  C1  SIA J   5      59.471  83.194  72.428  1.00 25.20     0.240 C 
HETATM   27  O1A SIA J   5      59.366  83.984  73.397  1.00 24.36    -0.644 OA
HETATM   28  O1B SIA J   5      59.582  83.477  71.214  1.00 23.37    -0.644 OA
ENDBRANCH  19  26
BRANCH  22  29
HETATM   29  N5  SIA J   5      63.572  81.415  72.212  1.00 21.56    -0.235 NA
HETATM   30  C10 SIA J   5      64.659  80.653  72.326  1.00 23.49     0.252 C 
HETATM   31  O10 SIA J   5      64.564  79.493  72.812  1.00 26.49    -0.271 OA
HETATM   32  C11 SIA J   5      65.923  81.382  71.864  1.00 20.70     0.100 C 
ENDBRANCH  22  29
BRANCH  24  33
HETATM   33  C7  SIA J   5      62.367  81.742  75.014  1.00 23.24     0.214 C 
HETATM   34  O7  SIA J   5      61.519  81.323  76.099  1.00 24.21    -0.218 OA
BRANCH  33  35
HETATM   35  C8  SIA J   5      62.959  83.112  75.329  1.00 24.66     0.218 C 
HETATM   36  O8  SIA J   5      62.597  84.001  74.294  1.00 20.98    -0.218 OA
BRANCH  35  37
HETATM   37  C9  SIA J   5      64.460  82.984  75.491  1.00 22.69     0.218 C 
HETATM   38  O9  SIA J   5      64.860  82.642  76.813  1.00 26.43    -0.218 OA
ENDBRANCH  35  37
ENDBRANCH  33  35
ENDBRANCH  24  33
ENDBRANCH  18  19
ENDBRANCH  13  18
BRANCH  15  39
HETATM   39  O4  GAL J   2      55.840  81.993  74.717  1.00 22.03    -0.327 OA
BRANCH  39  40
HETATM   40  C1  NGA J   3      55.814  83.379  75.004  1.00 22.91     0.262 C 
HETATM   41  C2  NGA J   3      54.567  83.648  75.857  1.00 21.55     0.192 C 
HETATM   42  C3  NGA J   3      54.592  85.072  76.314  1.00 19.57     0.178 C 
HETATM   43  C4  NGA J   3      55.909  85.502  76.961  1.00 18.76     0.211 C 
HETATM   44  C5  NGA J   3      57.052  85.149  76.030  1.00 22.49     0.184 C 
HETATM   45  O4  NGA J   3      56.051  84.912  78.242  1.00 22.74    -0.218 OA
HETATM   46  O5  NGA J   3      56.986  83.741  75.743  1.00 25.46    -0.327 OA
BRANCH  41  47
HETATM   47  N2  NGA J   3      53.452  83.190  75.049  1.00 24.00    -0.232 NA
HETATM   48  C7  NGA J   3      52.438  82.470  75.574  1.00 26.74     0.252 C 
HETATM   49  C8  NGA J   3      51.501  81.985  74.466  1.00 22.43     0.100 C 
HETATM   50  O7  NGA J   3      52.367  82.214  76.814  1.00 22.79    -0.271 OA
ENDBRANCH  41  47
BRANCH  42  51
HETATM   51  O3  NGA J   3      53.520  85.359  77.197  1.00 17.99    -0.327 OA
BRANCH  51  52
HETATM   52  C1  GAL J   4      52.936  86.624  76.981  1.00 14.14     0.270 C 
HETATM   53  C2  GAL J   4      51.439  86.439  76.859  1.00 12.92     0.241 C 
HETATM   54  C3  GAL J   4      50.722  87.776  76.720  1.00 11.17     0.220 C 
HETATM   55  O2  GAL J   4      51.101  85.587  75.784  1.00 13.46    -0.215 OA
HETATM   56  C4  GAL J   4      51.147  88.661  77.894  1.00 11.62     0.215 C 
HETATM   57  O3  GAL J   4      49.330  87.561  76.733  1.00 11.38    -0.218 OA
HETATM   58  O4  GAL J   4      50.593  88.159  79.103  1.00 11.09    -0.218 OA
HETATM   59  C5  GAL J   4      52.659  88.730  77.996  1.00 12.47     0.184 C 
HETATM   60  O5  GAL J   4      53.173  87.404  78.164  1.00 13.45    -0.326 OA
BRANCH  59  61
HETATM   61  C6  GAL J   4      53.132  89.460  79.229  1.00 11.95     0.215 C 
HETATM   62  O6  GAL J   4      53.911  88.664  80.098  1.00 15.73    -0.218 OA
ENDBRANCH  59  61
ENDBRANCH  51  52
ENDBRANCH  42  51
BRANCH  44  63
HETATM   63  C6  NGA J   3      58.403  85.507  76.601  1.00 23.49     0.215 C 
HETATM   64  O6  NGA J   3      59.282  84.408  76.601  1.00 36.93    -0.218 OA
ENDBRANCH  44  63
ENDBRANCH  39  40
ENDBRANCH  15  39
BRANCH  16  65
HETATM   65  C6  GAL J   2      55.580  81.032  77.357  1.00 29.12     0.214 C 
HETATM   66  O6  GAL J   2      56.454  81.752  78.228  1.00 34.44    -0.218 OA
ENDBRANCH  16  65
ENDBRANCH  10  11
ENDBRANCH   3  10
BRANCH   4  67
HETATM   67  C6  BGC J   1      52.489  77.663  75.306  1.00 30.61     0.214 C 
HETATM   68  O6  BGC J   1      52.405  78.870  76.012  1.00 38.23    -0.218 OA
ENDBRANCH   4  67
TORSDOF 18
ENDMDL
MODEL 8
REMARK VINA RESULT:      -6.3      4.547     10.490
REMARK  18 active torsions:
REMARK  status: ('A' for Active; 'I' for Inactive)
REMARK    1  A    between atoms: C4_3  and  O4_10 
REMARK    2  A    between atoms: C5_4  and  C6_5 
REMARK    3  A    between atoms: O4_10  and  C1_13 
REMARK    4  A    between atoms: C3_15  and  O3_20 
REMARK    5  A    between atoms: C4_16  and  O4_21 
REMARK    6  A    between atoms: C5_17  and  C6_18 
REMARK    7  A    between atoms: O3_20  and  C2_50 
REMARK    8  A    between atoms: O4_21  and  C1_24 
REMARK    9  A    between atoms: C2_25  and  N2_32 
REMARK   10  A    between atoms: C3_26  and  O3_33 
REMARK   11  A    between atoms: C5_28  and  C6_29 
REMARK       I    between atoms: C7_30  and  N2_32 
REMARK   12  A    between atoms: O3_33  and  C1_38 
REMARK   13  A    between atoms: C5_42  and  C6_43 
REMARK   14  A    between atoms: C1_49  and  C2_50 
REMARK   15  A    between atoms: C5_53  and  N5_60 
REMARK   16  A    between atoms: C6_54  and  C7_55 
REMARK   17  A    between atoms: C7_55  and  C8_56 
REMARK   18  A    between atoms: C8_56  and  C9_57 
REMARK       I    between atoms: C10_58  and  N5_60 
ROOT
HETATM    1  C2  BGC J   1      65.181  79.872  69.767  1.00 33.73     0.244 C 
HETATM    2  C3  BGC J   1      64.488  80.512  70.962  1.00 34.22     0.217 C 
HETATM    3  C4  BGC J   1      63.001  80.123  70.985  1.00 35.62     0.181 C 
HETATM    4  C5  BGC J   1      62.887  78.603  70.981  1.00 33.72     0.181 C 
HETATM    5  C1  BGC J   1      64.944  78.376  69.625  1.00 35.29     0.303 C 
HETATM    6  O1  BGC J   1      65.286  77.876  68.325  1.00 22.52    -0.187 OA
HETATM    7  O2  BGC J   1      66.577  80.134  69.793  1.00 40.75    -0.215 OA
HETATM    8  O3  BGC J   1      64.589  81.941  70.888  1.00 32.08    -0.218 OA
HETATM    9  O5  BGC J   1      63.615  78.014  69.931  1.00 36.77    -0.324 OA
ENDROOT
BRANCH   3  10
HETATM   10  O4  BGC J   1      62.445  80.566  72.214  1.00 33.55    -0.326 OA
BRANCH  10  11
HETATM   11  C1  GAL J   2      61.334  81.461  72.217  1.00 29.50     0.270 C 
HETATM   12  C2  GAL J   2      60.537  81.295  73.487  1.00 27.02     0.238 C 
HETATM   13  C3  GAL J   2      59.550  82.448  73.729  1.00 23.05     0.183 C 
HETATM   14  O2  GAL J   2      59.761  80.107  73.397  1.00 31.87    -0.215 OA
HETATM   15  C4  GAL J   2      60.321  83.765  73.629  1.00 23.22     0.177 C 
HETATM   16  C5  GAL J   2      61.024  83.848  72.279  1.00 24.62     0.180 C 
HETATM   17  O5  GAL J   2      61.946  82.754  72.220  1.00 30.39    -0.326 OA
BRANCH  13  18
HETATM   18  O3  GAL J   2      59.116  82.279  75.084  1.00 25.06    -0.324 OA
BRANCH  18  19
HETATM   19  C2  SIA J   5      57.793  82.665  75.396  1.00 22.94     0.271 C 
HETATM   20  C3  SIA J   5      57.025  83.243  74.231  1.00 25.74     0.103 C 
HETATM   21  C4  SIA J   5      55.592  83.586  74.634  1.00 26.04     0.182 C 
HETATM   22  C5  SIA J   5      55.596  84.528  75.857  1.00 24.75     0.166 C 
HETATM   23  O4  SIA J   5      55.043  84.380  73.569  1.00 26.63    -0.221 OA
HETATM   24  C6  SIA J   5      56.436  83.878  76.952  1.00 22.50     0.176 C 
HETATM   25  O6  SIA J   5      57.785  83.612  76.472  1.00 22.65    -0.325 OA
BRANCH  19  26
HETATM   26  C1  SIA J   5      57.122  81.380  75.863  1.00 25.20     0.240 C 
HETATM   27  O1A SIA J   5      56.937  81.312  77.101  1.00 24.36    -0.644 OA
HETATM   28  O1B SIA J   5      56.868  80.512  74.998  1.00 23.37    -0.644 OA
ENDBRANCH  19  26
BRANCH  22  29
HETATM   29  N5  SIA J   5      54.207  84.758  76.221  1.00 21.56    -0.235 NA
HETATM   30  C10 SIA J   5      53.632  85.944  76.409  1.00 23.49     0.252 C 
HETATM   31  O10 SIA J   5      54.315  86.999  76.289  1.00 26.49    -0.271 OA
HETATM   32  C11 SIA J   5      52.161  85.813  76.811  1.00 20.70     0.100 C 
ENDBRANCH  22  29
BRANCH  24  33
HETATM   33  C7  SIA J   5      56.561  84.765  78.189  1.00 23.24     0.214 C 
HETATM   34  O7  SIA J   5      57.930  85.024  78.549  1.00 24.21    -0.218 OA
BRANCH  33  35
HETATM   35  C8  SIA J   5      55.863  84.029  79.328  1.00 24.66     0.218 C 
HETATM   36  O8  SIA J   5      54.935  84.909  79.924  1.00 20.98    -0.218 OA
BRANCH  35  37
HETATM   37  C9  SIA J   5      56.901  83.521  80.308  1.00 22.69     0.218 C 
HETATM   38  O9  SIA J   5      56.732  82.151  80.654  1.00 26.43    -0.218 OA
ENDBRANCH  35  37
ENDBRANCH  33  35
ENDBRANCH  24  33
ENDBRANCH  18  19
ENDBRANCH  13  18
BRANCH  15  39
HETATM   39  O4  GAL J   2      61.336  83.828  74.622  1.00 22.03    -0.327 OA
BRANCH  39  40
HETATM   40  C1  NGA J   3      61.078  84.783  75.635  1.00 22.91     0.262 C 
HETATM   41  C2  NGA J   3      62.359  85.606  75.826  1.00 21.55     0.192 C 
HETATM   42  C3  NGA J   3      62.076  86.728  76.774  1.00 19.57     0.178 C 
HETATM   43  C4  NGA J   3      60.839  87.554  76.418  1.00 18.76     0.211 C 
HETATM   44  C5  NGA J   3      59.662  86.617  76.226  1.00 22.49     0.184 C 
HETATM   45  O4  NGA J   3      61.085  88.355  75.276  1.00 22.74    -0.218 OA
HETATM   46  O5  NGA J   3      60.012  85.647  75.224  1.00 25.46    -0.327 OA
BRANCH  41  47
HETATM   47  N2  NGA J   3      63.381  84.636  76.175  1.00 24.00    -0.232 NA
HETATM   48  C7  NGA J   3      64.614  84.670  75.626  1.00 26.74     0.252 C 
HETATM   49  C8  NGA J   3      65.417  83.437  76.045  1.00 22.43     0.100 C 
HETATM   50  O7  NGA J   3      64.971  85.591  74.831  1.00 22.79    -0.271 OA
ENDBRANCH  41  47
BRANCH  42  51
HETATM   51  O3  NGA J   3      63.191  87.593  76.913  1.00 17.99    -0.327 OA
BRANCH  51  52
HETATM   52  C1  GAL J   4      63.672  87.684  78.235  1.00 14.14     0.270 C 
HETATM   53  C2  GAL J   4      65.074  88.252  78.191  1.00 12.92     0.241 C 
HETATM   54  C3  GAL J   4      65.630  88.473  79.592  1.00 11.17     0.220 C 
HETATM   55  O2  GAL J   4      65.948  87.437  77.439  1.00 13.46    -0.215 OA
HETATM   56  C4  GAL J   4      64.630  89.338  80.363  1.00 11.62     0.215 C 
HETATM   57  O3  GAL J   4      66.881  89.114  79.501  1.00 11.38    -0.218 OA
HETATM   58  O4  GAL J   4      64.629  90.659  79.839  1.00 11.09    -0.218 OA
HETATM   59  C5  GAL J   4      63.236  88.743  80.291  1.00 12.47     0.184 C 
HETATM   60  O5  GAL J   4      62.846  88.641  78.918  1.00 13.45    -0.326 OA
BRANCH  59  61
HETATM   61  C6  GAL J   4      62.184  89.636  80.901  1.00 11.95     0.215 C 
HETATM   62  O6  GAL J   4      61.278  90.172  79.959  1.00 15.73    -0.218 OA
ENDBRANCH  59  61
ENDBRANCH  51  52
ENDBRANCH  42  51
BRANCH  44  63
HETATM   63  C6  NGA J   3      58.395  87.342  75.838  1.00 23.49     0.215 C 
HETATM   64  O6  NGA J   3      57.912  86.920  74.586  1.00 36.93    -0.218 OA
ENDBRANCH  44  63
ENDBRANCH  39  40
ENDBRANCH  15  39
BRANCH  16  65
HETATM   65  C6  GAL J   2      61.832  85.155  72.182  1.00 29.12     0.214 C 
HETATM   66  O6  GAL J   2      63.223  84.853  72.054  1.00 34.44    -0.218 OA
ENDBRANCH  16  65
ENDBRANCH  10  11
ENDBRANCH   3  10
BRANCH   4  67
HETATM   67  C6  BGC J   1      61.468  78.035  71.098  1.00 30.61     0.214 C 
HETATM   68  O6  BGC J   1      61.281  77.273  72.258  1.00 38.23    -0.218 OA
ENDBRANCH   4  67
TORSDOF 18
ENDMDL
MODEL 9
REMARK VINA RESULT:      -6.2      4.190     10.215
REMARK  18 active torsions:
REMARK  status: ('A' for Active; 'I' for Inactive)
REMARK    1  A    between atoms: C4_3  and  O4_10 
REMARK    2  A    between atoms: C5_4  and  C6_5 
REMARK    3  A    between atoms: O4_10  and  C1_13 
REMARK    4  A    between atoms: C3_15  and  O3_20 
REMARK    5  A    between atoms: C4_16  and  O4_21 
REMARK    6  A    between atoms: C5_17  and  C6_18 
REMARK    7  A    between atoms: O3_20  and  C2_50 
REMARK    8  A    between atoms: O4_21  and  C1_24 
REMARK    9  A    between atoms: C2_25  and  N2_32 
REMARK   10  A    between atoms: C3_26  and  O3_33 
REMARK   11  A    between atoms: C5_28  and  C6_29 
REMARK       I    between atoms: C7_30  and  N2_32 
REMARK   12  A    between atoms: O3_33  and  C1_38 
REMARK   13  A    between atoms: C5_42  and  C6_43 
REMARK   14  A    between atoms: C1_49  and  C2_50 
REMARK   15  A    between atoms: C5_53  and  N5_60 
REMARK   16  A    between atoms: C6_54  and  C7_55 
REMARK   17  A    between atoms: C7_55  and  C8_56 
REMARK   18  A    between atoms: C8_56  and  C9_57 
REMARK       I    between atoms: C10_58  and  N5_60 
ROOT
HETATM    1  C2  BGC J   1      64.323  78.692  70.185  1.00 33.73     0.244 C 
HETATM    2  C3  BGC J   1      63.765  79.381  71.423  1.00 34.22     0.217 C 
HETATM    3  C4  BGC J   1      64.908  79.977  72.260  1.00 35.62     0.181 C 
HETATM    4  C5  BGC J   1      65.728  80.914  71.380  1.00 33.72     0.181 C 
HETATM    5  C1  BGC J   1      65.291  79.538  69.372  1.00 35.29     0.303 C 
HETATM    6  O1  BGC J   1      66.069  78.766  68.448  1.00 22.52    -0.187 OA
HETATM    7  O2  BGC J   1      63.272  78.231  69.348  1.00 40.75    -0.215 OA
HETATM    8  O3  BGC J   1      63.044  78.441  72.231  1.00 32.08    -0.218 OA
HETATM    9  O5  BGC J   1      66.153  80.297  70.189  1.00 36.77    -0.324 OA
ENDROOT
BRANCH   3  10
HETATM   10  O4  BGC J   1      64.338  80.779  73.283  1.00 33.55    -0.326 OA
BRANCH  10  11
HETATM   11  C1  GAL J   2      63.194  81.587  73.008  1.00 29.50     0.270 C 
HETATM   12  C2  GAL J   2      62.313  81.670  74.229  1.00 27.02     0.238 C 
HETATM   13  C3  GAL J   2      61.264  82.790  74.134  1.00 23.05     0.183 C 
HETATM   14  O2  GAL J   2      61.594  80.451  74.367  1.00 31.87    -0.215 OA
HETATM   15  C4  GAL J   2      61.986  84.091  73.780  1.00 23.22     0.177 C 
HETATM   16  C5  GAL J   2      62.785  83.902  72.494  1.00 24.62     0.180 C 
HETATM   17  O5  GAL J   2      63.752  82.879  72.750  1.00 30.39    -0.326 OA
BRANCH  13  18
HETATM   18  O3  GAL J   2      60.737  82.911  75.460  1.00 25.06    -0.324 OA
BRANCH  18  19
HETATM   19  C2  SIA J   5      59.331  82.894  75.605  1.00 22.94     0.271 C 
HETATM   20  C3  SIA J   5      58.573  83.144  74.324  1.00 25.74     0.103 C 
HETATM   21  C4  SIA J   5      57.065  83.057  74.553  1.00 26.04     0.182 C 
HETATM   22  C5  SIA J   5      56.644  84.023  75.680  1.00 24.75     0.166 C 
HETATM   23  O4  SIA J   5      56.438  83.585  73.372  1.00 26.63    -0.221 OA
HETATM   24  C6  SIA J   5      57.500  83.723  76.906  1.00 22.50     0.176 C 
HETATM   25  O6  SIA J   5      58.915  83.853  76.586  1.00 22.65    -0.325 OA
BRANCH  19  26
HETATM   26  C1  SIA J   5      59.020  81.495  76.119  1.00 25.20     0.240 C 
HETATM   27  O1A SIA J   5      58.437  80.755  75.290  1.00 24.36    -0.644 OA
HETATM   28  O1B SIA J   5      59.323  81.232  77.304  1.00 23.37    -0.644 OA
ENDBRANCH  19  26
BRANCH  22  29
HETATM   29  N5  SIA J   5      55.215  83.840  75.884  1.00 21.56    -0.235 NA
HETATM   30  C10 SIA J   5      54.284  84.788  75.801  1.00 23.49     0.252 C 
HETATM   31  O10 SIA J   5      54.620  85.977  75.540  1.00 26.49    -0.271 OA
HETATM   32  C11 SIA J   5      52.884  84.248  76.104  1.00 20.70     0.100 C 
ENDBRANCH  22  29
BRANCH  24  33
HETATM   33  C7  SIA J   5      57.207  84.674  78.064  1.00 23.24     0.214 C 
HETATM   34  O7  SIA J   5      58.380  85.375  78.516  1.00 24.21    -0.218 OA
BRANCH  33  35
HETATM   35  C8  SIA J   5      56.650  83.823  79.200  1.00 24.66     0.218 C 
HETATM   36  O8  SIA J   5      56.663  82.473  78.792  1.00 20.98    -0.218 OA
BRANCH  35  37
HETATM   37  C9  SIA J   5      55.262  84.313  79.559  1.00 22.69     0.218 C 
HETATM   38  O9  SIA J   5      54.974  85.615  79.063  1.00 26.43    -0.218 OA
ENDBRANCH  35  37
ENDBRANCH  33  35
ENDBRANCH  24  33
ENDBRANCH  18  19
ENDBRANCH  13  18
BRANCH  15  39
HETATM   39  O4  GAL J   2      62.921  84.437  74.793  1.00 22.03    -0.327 OA
BRANCH  39  40
HETATM   40  C1  NGA J   3      62.414  85.360  75.739  1.00 22.91     0.262 C 
HETATM   41  C2  NGA J   3      63.577  86.265  76.166  1.00 21.55     0.192 C 
HETATM   42  C3  NGA J   3      63.047  87.355  77.042  1.00 19.57     0.178 C 
HETATM   43  C4  NGA J   3      61.845  88.100  76.460  1.00 18.76     0.211 C 
HETATM   44  C5  NGA J   3      60.791  87.089  76.052  1.00 22.49     0.184 C 
HETATM   45  O4  NGA J   3      62.245  88.929  75.384  1.00 22.74    -0.218 OA
HETATM   46  O5  NGA J   3      61.387  86.156  75.135  1.00 25.46    -0.327 OA
BRANCH  41  47
HETATM   47  N2  NGA J   3      64.580  85.362  76.700  1.00 24.00    -0.232 NA
HETATM   48  C7  NGA J   3      65.821  85.282  76.176  1.00 26.74     0.252 C 
HETATM   49  C8  NGA J   3      66.600  84.135  76.824  1.00 22.43     0.100 C 
HETATM   50  O7  NGA J   3      66.203  86.040  75.234  1.00 22.79    -0.271 OA
ENDBRANCH  41  47
BRANCH  42  51
HETATM   51  O3  NGA J   3      64.055  88.290  77.387  1.00 17.99    -0.327 OA
BRANCH  51  52
HETATM   52  C1  GAL J   4      64.573  88.108  78.686  1.00 14.14     0.270 C 
HETATM   53  C2  GAL J   4      65.934  88.766  78.749  1.00 12.92     0.241 C 
HETATM   54  C3  GAL J   4      66.522  88.697  80.153  1.00 11.17     0.220 C 
HETATM   55  O2  GAL J   4      66.833  88.207  77.813  1.00 13.46    -0.215 OA
HETATM   56  C4  GAL J   4      65.496  89.291  81.121  1.00 11.62     0.215 C 
HETATM   57  O3  GAL J   4      67.726  89.426  80.190  1.00 11.38    -0.218 OA
HETATM   58  O4  GAL J   4      65.395  90.694  80.917  1.00 11.09    -0.218 OA
HETATM   59  C5  GAL J   4      64.140  88.633  80.938  1.00 12.47     0.184 C 
HETATM   60  O5  GAL J   4      63.711  88.823  79.586  1.00 13.45    -0.326 OA
BRANCH  59  61
HETATM   61  C6  GAL J   4      63.055  89.289  81.757  1.00 11.95     0.215 C 
HETATM   62  O6  GAL J   4      61.748  88.926  81.362  1.00 15.73    -0.218 OA
ENDBRANCH  59  61
ENDBRANCH  51  52
ENDBRANCH  42  51
BRANCH  44  63
HETATM   63  C6  NGA J   3      59.573  87.731  75.433  1.00 23.49     0.215 C 
HETATM   64  O6  NGA J   3      58.462  86.868  75.443  1.00 36.93    -0.218 OA
ENDBRANCH  44  63
ENDBRANCH  39  40
ENDBRANCH  15  39
BRANCH  16  65
HETATM   65  C6  GAL J   2      63.544  85.197  72.148  1.00 29.12     0.214 C 
HETATM   66  O6  GAL J   2      62.969  85.795  70.986  1.00 34.44    -0.218 OA
ENDBRANCH  16  65
ENDBRANCH  10  11
ENDBRANCH   3  10
BRANCH   4  67
HETATM   67  C6  BGC J   1      66.860  81.675  72.081  1.00 30.61     0.214 C 
HETATM   68  O6  BGC J   1      67.690  82.361  71.185  1.00 38.23    -0.218 OA
ENDBRANCH   4  67
TORSDOF 18
ENDMDL
