MODEL 1
REMARK VINA RESULT:      -7.6      0.000      0.000
REMARK  18 active torsions:
REMARK  status: ('A' for Active; 'I' for Inactive)
REMARK    1  A    between atoms: C4_3  and  O4_10 
REMARK    2  A    between atoms: C5_4  and  C6_5 
REMARK    3  A    between atoms: O4_10  and  C1_13 
REMARK    4  A    between atoms: C3_15  and  O3_20 
REMARK    5  A    between atoms: C4_16  and  O4_21 
REMARK    6  A    between atoms: C5_17  and  C6_18 
REMARK    7  A    between atoms: O3_20  and  C2_50 
REMARK    8  A    between atoms: O4_21  and  C1_24 
REMARK    9  A    between atoms: C2_25  and  N2_32 
REMARK   10  A    between atoms: C3_26  and  O3_33 
REMARK   11  A    between atoms: C5_28  and  C6_29 
REMARK       I    between atoms: C7_30  and  N2_32 
REMARK   12  A    between atoms: O3_33  and  C1_38 
REMARK   13  A    between atoms: C5_42  and  C6_43 
REMARK   14  A    between atoms: C1_49  and  C2_50 
REMARK   15  A    between atoms: C5_53  and  N5_60 
REMARK   16  A    between atoms: C6_54  and  C7_55 
REMARK   17  A    between atoms: C7_55  and  C8_56 
REMARK   18  A    between atoms: C8_56  and  C9_57 
REMARK       I    between atoms: C10_58  and  N5_60 
ROOT
HETATM    1  C2  BGC I   1      59.743  81.223  71.372  1.00 21.38     0.244 C 
HETATM    2  C3  BGC I   1      60.998  80.672  70.711  1.00 23.08     0.217 C 
HETATM    3  C4  BGC I   1      61.512  79.510  71.577  1.00 23.78     0.181 C 
HETATM    4  C5  BGC I   1      60.393  78.475  71.671  1.00 23.63     0.181 C 
HETATM    5  C1  BGC I   1      58.684  80.165  71.642  1.00 21.14     0.303 C 
HETATM    6  O1  BGC I   1      57.671  80.698  72.515  1.00 19.41    -0.187 OA
HETATM    7  O2  BGC I   1      59.274  82.260  70.524  1.00 30.88    -0.215 OA
HETATM    8  O3  BGC I   1      61.987  81.675  70.593  1.00 25.83    -0.218 OA
HETATM    9  O5  BGC I   1      59.294  79.091  72.348  1.00 21.93    -0.324 OA
ENDROOT
BRANCH   3  10
HETATM   10  O4  BGC I   1      62.545  78.882  70.827  1.00 24.88    -0.326 OA
BRANCH  10  11
HETATM   11  C1  GAL I   2      63.802  78.745  71.483  1.00 21.60     0.270 C 
HETATM   12  O5  GAL I   2      63.568  79.303  72.776  1.00 21.12    -0.326 OA
HETATM   13  C5  GAL I   2      64.705  79.254  73.658  1.00 19.51     0.180 C 
HETATM   14  C4  GAL I   2      65.734  80.215  73.069  1.00 19.17     0.177 C 
HETATM   15  C3  GAL I   2      66.146  79.660  71.684  1.00 19.53     0.183 C 
HETATM   16  C2  GAL I   2      64.877  79.576  70.806  1.00 22.15     0.238 C 
HETATM   17  O2  GAL I   2      65.225  78.948  69.573  1.00 22.38    -0.215 OA
BRANCH  13  18
HETATM   18  C6  GAL I   2      64.236  79.710  75.031  1.00 21.72     0.214 C 
HETATM   19  O6  GAL I   2      64.749  78.929  76.113  1.00 21.52    -0.218 OA
ENDBRANCH  13  18
BRANCH  14  20
HETATM   20  O4  GAL I   2      65.124  81.486  72.861  1.00 17.56    -0.327 OA
BRANCH  20  21
HETATM   21  C1  NGA I   3      65.725  82.636  73.435  1.00 20.79     0.262 C 
HETATM   22  C2  NGA I   3      64.841  83.227  74.543  1.00 19.16     0.192 C 
HETATM   23  C3  NGA I   3      65.574  84.470  75.034  1.00 17.33     0.178 C 
HETATM   24  C4  NGA I   3      67.025  84.166  75.451  1.00 17.75     0.211 C 
HETATM   25  C5  NGA I   3      67.793  83.508  74.334  1.00 18.50     0.184 C 
HETATM   26  O4  NGA I   3      66.990  83.389  76.643  1.00 21.37    -0.218 OA
HETATM   27  O5  NGA I   3      67.037  82.348  73.931  1.00 18.52    -0.327 OA
BRANCH  22  28
HETATM   28  N2  NGA I   3      63.538  83.482  73.944  1.00 18.63    -0.232 NA
HETATM   29  C7  NGA I   3      62.391  83.151  74.513  1.00 18.81     0.252 C 
HETATM   30  C8  NGA I   3      61.192  83.332  73.582  1.00 18.13     0.100 C 
HETATM   31  O7  NGA I   3      62.321  82.655  75.681  1.00 18.42    -0.271 OA
ENDBRANCH  22  28
BRANCH  23  32
HETATM   32  O3  NGA I   3      64.858  84.948  76.178  1.00 16.00    -0.327 OA
BRANCH  32  33
HETATM   33  C1  GAL I   4      64.872  86.345  76.236  1.00 13.84     0.270 C 
HETATM   34  C2  GAL I   4      63.477  86.817  76.597  1.00 11.13     0.241 C 
HETATM   35  O2  GAL I   4      62.546  86.433  75.578  1.00 11.75    -0.215 OA
HETATM   36  C3  GAL I   4      63.484  88.322  76.745  1.00 10.40     0.220 C 
HETATM   37  O3  GAL I   4      62.212  88.738  77.197  1.00 10.96    -0.218 OA
HETATM   38  C4  GAL I   4      64.536  88.718  77.815  1.00 10.48     0.215 C 
HETATM   39  O4  GAL I   4      64.154  88.263  79.075  1.00 10.75    -0.218 OA
HETATM   40  C5  GAL I   4      65.879  88.111  77.435  1.00 11.91     0.184 C 
HETATM   41  O5  GAL I   4      65.786  86.676  77.312  1.00 12.52    -0.326 OA
BRANCH  40  42
HETATM   42  C6  GAL I   4      66.934  88.325  78.519  1.00 12.85     0.215 C 
HETATM   43  O6  GAL I   4      68.183  87.722  78.182  1.00 14.53    -0.218 OA
ENDBRANCH  40  42
ENDBRANCH  32  33
ENDBRANCH  23  32
BRANCH  25  44
HETATM   44  C6  NGA I   3      69.209  83.059  74.584  1.00 24.09     0.215 C 
HETATM   45  O6  NGA I   3      70.004  84.028  75.244  1.00 34.45    -0.218 OA
ENDBRANCH  25  44
ENDBRANCH  20  21
ENDBRANCH  14  20
BRANCH  15  46
HETATM   46  O3  GAL I   2      66.980  80.630  71.072  1.00 19.83    -0.324 OA
BRANCH  46  47
HETATM   47  C2  SIA I   5      68.319  80.356  70.667  1.00 19.70     0.271 C 
HETATM   48  C3  SIA I   5      68.472  79.361  69.555  1.00 21.90     0.103 C 
HETATM   49  C4  SIA I   5      69.909  78.967  69.284  1.00 21.98     0.182 C 
HETATM   50  O4  SIA I   5      69.956  77.797  68.459  1.00 23.39    -0.221 OA
HETATM   51  C5  SIA I   5      70.689  78.679  70.575  1.00 21.56     0.166 C 
HETATM   52  C6  SIA I   5      70.462  79.771  71.615  1.00 20.61     0.176 C 
HETATM   53  O6  SIA I   5      69.046  79.928  71.803  1.00 21.33    -0.325 OA
BRANCH  47  54
HETATM   54  C1  SIA I   5      68.900  81.695  70.210  1.00 22.23     0.240 C 
HETATM   55  O1A SIA I   5      69.170  81.781  68.965  1.00 17.82    -0.644 OA
HETATM   56  O1B SIA I   5      69.083  82.557  71.098  1.00 18.18    -0.644 OA
ENDBRANCH  47  54
BRANCH  51  57
HETATM   57  N5  SIA I   5      72.094  78.528  70.188  1.00 19.98    -0.235 NA
HETATM   58  C10 SIA I   5      72.813  79.497  69.607  1.00 19.62     0.252 C 
HETATM   59  O10 SIA I   5      72.316  80.625  69.342  1.00 24.06    -0.271 OA
HETATM   60  C11 SIA I   5      74.278  79.126  69.312  1.00 17.86     0.100 C 
ENDBRANCH  51  57
BRANCH  52  61
HETATM   61  C7  SIA I   5      71.053  79.479  73.008  1.00 20.48     0.214 C 
HETATM   62  O7  SIA I   5      70.002  79.203  73.972  1.00 18.83    -0.218 OA
BRANCH  61  63
HETATM   63  C8  SIA I   5      71.699  80.784  73.517  1.00 17.95     0.218 C 
HETATM   64  O8  SIA I   5      72.700  81.171  72.599  1.00 17.57    -0.218 OA
BRANCH  63  65
HETATM   65  C9  SIA I   5      72.391  80.483  74.851  1.00 20.07     0.218 C 
HETATM   66  O9  SIA I   5      71.698  81.011  75.941  1.00 23.55    -0.218 OA
ENDBRANCH  63  65
ENDBRANCH  61  63
ENDBRANCH  52  61
ENDBRANCH  46  47
ENDBRANCH  15  46
ENDBRANCH  10  11
ENDBRANCH   3  10
BRANCH   4  67
HETATM   67  C6  BGC I   1      60.822  77.218  72.425  1.00 22.08     0.214 C 
HETATM   68  O6  BGC I   1      59.919  76.157  72.265  1.00 27.97    -0.218 OA
ENDBRANCH   4  67
TORSDOF 18
ENDMDL
MODEL 2
REMARK VINA RESULT:      -6.8      2.865      9.421
REMARK  18 active torsions:
REMARK  status: ('A' for Active; 'I' for Inactive)
REMARK    1  A    between atoms: C4_3  and  O4_10 
REMARK    2  A    between atoms: C5_4  and  C6_5 
REMARK    3  A    between atoms: O4_10  and  C1_13 
REMARK    4  A    between atoms: C3_15  and  O3_20 
REMARK    5  A    between atoms: C4_16  and  O4_21 
REMARK    6  A    between atoms: C5_17  and  C6_18 
REMARK    7  A    between atoms: O3_20  and  C2_50 
REMARK    8  A    between atoms: O4_21  and  C1_24 
REMARK    9  A    between atoms: C2_25  and  N2_32 
REMARK   10  A    between atoms: C3_26  and  O3_33 
REMARK   11  A    between atoms: C5_28  and  C6_29 
REMARK       I    between atoms: C7_30  and  N2_32 
REMARK   12  A    between atoms: O3_33  and  C1_38 
REMARK   13  A    between atoms: C5_42  and  C6_43 
REMARK   14  A    between atoms: C1_49  and  C2_50 
REMARK   15  A    between atoms: C5_53  and  N5_60 
REMARK   16  A    between atoms: C6_54  and  C7_55 
REMARK   17  A    between atoms: C7_55  and  C8_56 
REMARK   18  A    between atoms: C8_56  and  C9_57 
REMARK       I    between atoms: C10_58  and  N5_60 
ROOT
HETATM    1  C2  BGC I   1      61.055  88.390  78.138  1.00 21.38     0.244 C 
HETATM    2  C3  BGC I   1      61.313  86.908  77.909  1.00 23.08     0.217 C 
HETATM    3  C4  BGC I   1      62.234  86.776  76.686  1.00 23.78     0.181 C 
HETATM    4  C5  BGC I   1      63.512  87.556  76.985  1.00 23.63     0.181 C 
HETATM    5  C1  BGC I   1      62.326  89.217  78.257  1.00 21.14     0.303 C 
HETATM    6  O1  BGC I   1      62.008  90.618  78.179  1.00 19.41    -0.187 OA
HETATM    7  O2  BGC I   1      60.240  88.474  79.298  1.00 30.88    -0.215 OA
HETATM    8  O3  BGC I   1      60.100  86.214  77.692  1.00 25.83    -0.218 OA
HETATM    9  O5  BGC I   1      63.150  88.932  77.132  1.00 21.93    -0.324 OA
ENDROOT
BRANCH   3  10
HETATM   10  O4  BGC I   1      62.629  85.410  76.631  1.00 24.88    -0.326 OA
BRANCH  10  11
HETATM   11  C1  GAL I   2      62.775  84.851  75.329  1.00 21.60     0.270 C 
HETATM   12  O5  GAL I   2      61.439  84.817  74.827  1.00 21.12    -0.326 OA
HETATM   13  C5  GAL I   2      61.323  84.307  73.486  1.00 19.51     0.180 C 
HETATM   14  C4  GAL I   2      61.679  82.825  73.567  1.00 19.17     0.177 C 
HETATM   15  C3  GAL I   2      63.157  82.730  74.016  1.00 19.53     0.183 C 
HETATM   16  C2  GAL I   2      63.286  83.423  75.392  1.00 22.15     0.238 C 
HETATM   17  O2  GAL I   2      64.665  83.450  75.753  1.00 22.38    -0.215 OA
BRANCH  13  18
HETATM   18  C6  GAL I   2      59.881  84.512  73.045  1.00 21.72     0.214 C 
HETATM   19  O6  GAL I   2      59.733  85.374  71.915  1.00 21.52    -0.218 OA
ENDBRANCH  13  18
BRANCH  14  20
HETATM   20  O4  GAL I   2      60.881  82.205  74.573  1.00 17.56    -0.327 OA
BRANCH  20  21
HETATM   21  C1  NGA I   3      60.172  81.020  74.248  1.00 20.79     0.262 C 
HETATM   22  C2  NGA I   3      58.661  81.284  74.172  1.00 19.16     0.192 C 
HETATM   23  C3  NGA I   3      58.022  79.934  73.868  1.00 17.33     0.178 C 
HETATM   24  C4  NGA I   3      58.631  79.267  72.619  1.00 17.75     0.211 C 
HETATM   25  C5  NGA I   3      60.126  79.129  72.743  1.00 18.50     0.184 C 
HETATM   26  O4  NGA I   3      58.228  80.016  71.478  1.00 21.37    -0.218 OA
HETATM   27  O5  NGA I   3      60.648  80.443  73.028  1.00 18.52    -0.327 OA
BRANCH  22  28
HETATM   28  N2  NGA I   3      58.276  81.869  75.449  1.00 18.63    -0.232 NA
HETATM   29  C7  NGA I   3      57.463  82.906  75.566  1.00 18.81     0.252 C 
HETATM   30  C8  NGA I   3      57.399  83.451  76.993  1.00 18.13     0.100 C 
HETATM   31  O7  NGA I   3      56.873  83.434  74.572  1.00 18.42    -0.271 OA
ENDBRANCH  22  28
BRANCH  23  32
HETATM   32  O3  NGA I   3      56.632  80.178  73.627  1.00 16.00    -0.327 OA
BRANCH  32  33
HETATM   33  C1  GAL I   4      55.829  79.323  74.388  1.00 13.84     0.270 C 
HETATM   34  C2  GAL I   4      54.382  79.581  74.018  1.00 11.13     0.241 C 
HETATM   35  O2  GAL I   4      54.019  80.928  74.347  1.00 11.75    -0.215 OA
HETATM   36  C3  GAL I   4      53.496  78.613  74.770  1.00 10.40     0.220 C 
HETATM   37  O3  GAL I   4      52.164  78.781  74.329  1.00 10.96    -0.218 OA
HETATM   38  C4  GAL I   4      53.940  77.163  74.440  1.00 10.48     0.215 C 
HETATM   39  O4  GAL I   4      53.696  76.865  73.101  1.00 10.75    -0.218 OA
HETATM   40  C5  GAL I   4      55.427  77.024  74.734  1.00 11.91     0.184 C 
HETATM   41  O5  GAL I   4      56.199  77.982  73.981  1.00 12.52    -0.326 OA
BRANCH  40  42
HETATM   42  C6  GAL I   4      55.977  75.670  74.289  1.00 12.85     0.215 C 
HETATM   43  O6  GAL I   4      57.094  75.803  73.411  1.00 14.53    -0.218 OA
ENDBRANCH  40  42
ENDBRANCH  32  33
ENDBRANCH  23  32
BRANCH  25  44
HETATM   44  C6  NGA I   3      60.909  78.574  71.582  1.00 24.09     0.215 C 
HETATM   45  O6  NGA I   3      61.221  77.199  71.712  1.00 34.45    -0.218 OA
ENDBRANCH  25  44
ENDBRANCH  20  21
ENDBRANCH  14  20
BRANCH  15  46
HETATM   46  O3  GAL I   2      63.441  81.359  74.242  1.00 19.83    -0.324 OA
BRANCH  46  47
HETATM   47  C2  SIA I   5      64.561  80.693  73.664  1.00 19.70     0.271 C 
HETATM   48  C3  SIA I   5      65.906  81.266  74.005  1.00 21.90     0.103 C 
HETATM   49  C4  SIA I   5      67.046  80.644  73.227  1.00 21.98     0.182 C 
HETATM   50  O4  SIA I   5      68.228  81.444  73.353  1.00 23.39    -0.221 OA
HETATM   51  C5  SIA I   5      66.723  80.494  71.733  1.00 21.56     0.166 C 
HETATM   52  C6  SIA I   5      65.339  79.887  71.524  1.00 20.61     0.176 C 
HETATM   53  O6  SIA I   5      64.386  80.672  72.260  1.00 21.33    -0.325 OA
BRANCH  47  54
HETATM   54  C1  SIA I   5      64.499  79.251  74.171  1.00 22.23     0.240 C 
HETATM   55  O1A SIA I   5      65.084  79.035  75.286  1.00 17.82    -0.644 OA
HETATM   56  O1B SIA I   5      63.915  78.425  73.435  1.00 18.18    -0.644 OA
ENDBRANCH  47  54
BRANCH  51  57
HETATM   57  N5  SIA I   5      67.802  79.694  71.150  1.00 19.98    -0.235 NA
HETATM   58  C10 SIA I   5      68.458  80.032  70.032  1.00 19.62     0.252 C 
HETATM   59  O10 SIA I   5      68.179  81.080  69.390  1.00 24.06    -0.271 OA
HETATM   60  C11 SIA I   5      69.574  79.055  69.618  1.00 17.86     0.100 C 
ENDBRANCH  51  57
BRANCH  52  61
HETATM   61  C7  SIA I   5      64.849  79.869  70.063  1.00 20.48     0.214 C 
HETATM   62  O7  SIA I   5      63.426  80.156  69.989  1.00 18.83    -0.218 OA
BRANCH  61  63
HETATM   63  C8  SIA I   5      64.967  78.417  69.556  1.00 17.95     0.218 C 
HETATM   64  O8  SIA I   5      65.789  78.414  68.409  1.00 17.57    -0.218 OA
BRANCH  63  65
HETATM   65  C9  SIA I   5      63.573  77.949  69.124  1.00 20.07     0.218 C 
HETATM   66  O9  SIA I   5      63.623  76.969  68.132  1.00 23.55    -0.218 OA
ENDBRANCH  63  65
ENDBRANCH  61  63
ENDBRANCH  52  61
ENDBRANCH  46  47
ENDBRANCH  15  46
ENDBRANCH  10  11
ENDBRANCH   3  10
BRANCH   4  67
HETATM   67  C6  BGC I   1      64.556  87.414  75.879  1.00 22.08     0.214 C 
HETATM   68  O6  BGC I   1      65.870  87.453  76.367  1.00 27.97    -0.218 OA
ENDBRANCH   4  67
TORSDOF 18
ENDMDL
MODEL 3
REMARK VINA RESULT:      -6.7      2.746     10.875
REMARK  18 active torsions:
REMARK  status: ('A' for Active; 'I' for Inactive)
REMARK    1  A    between atoms: C4_3  and  O4_10 
REMARK    2  A    between atoms: C5_4  and  C6_5 
REMARK    3  A    between atoms: O4_10  and  C1_13 
REMARK    4  A    between atoms: C3_15  and  O3_20 
REMARK    5  A    between atoms: C4_16  and  O4_21 
REMARK    6  A    between atoms: C5_17  and  C6_18 
REMARK    7  A    between atoms: O3_20  and  C2_50 
REMARK    8  A    between atoms: O4_21  and  C1_24 
REMARK    9  A    between atoms: C2_25  and  N2_32 
REMARK   10  A    between atoms: C3_26  and  O3_33 
REMARK   11  A    between atoms: C5_28  and  C6_29 
REMARK       I    between atoms: C7_30  and  N2_32 
REMARK   12  A    between atoms: O3_33  and  C1_38 
REMARK   13  A    between atoms: C5_42  and  C6_43 
REMARK   14  A    between atoms: C1_49  and  C2_50 
REMARK   15  A    between atoms: C5_53  and  N5_60 
REMARK   16  A    between atoms: C6_54  and  C7_55 
REMARK   17  A    between atoms: C7_55  and  C8_56 
REMARK   18  A    between atoms: C8_56  and  C9_57 
REMARK       I    between atoms: C10_58  and  N5_60 
ROOT
HETATM    1  C2  BGC I   1      63.307  87.194  78.446  1.00 21.38     0.244 C 
HETATM    2  C3  BGC I   1      63.096  86.511  77.103  1.00 23.08     0.217 C 
HETATM    3  C4  BGC I   1      61.681  85.909  77.101  1.00 23.78     0.181 C 
HETATM    4  C5  BGC I   1      60.695  87.049  77.343  1.00 23.63     0.181 C 
HETATM    5  C1  BGC I   1      62.226  88.209  78.788  1.00 21.14     0.303 C 
HETATM    6  O1  BGC I   1      62.333  88.590  80.172  1.00 19.41    -0.187 OA
HETATM    7  O2  BGC I   1      64.601  87.774  78.394  1.00 30.88    -0.215 OA
HETATM    8  O3  BGC I   1      64.063  85.500  76.896  1.00 25.83    -0.218 OA
HETATM    9  O5  BGC I   1      60.959  87.577  78.645  1.00 21.93    -0.324 OA
ENDROOT
BRANCH   3  10
HETATM   10  O4  BGC I   1      61.437  85.473  75.769  1.00 24.88    -0.326 OA
BRANCH  10  11
HETATM   11  C1  GAL I   2      61.112  84.096  75.609  1.00 21.60     0.270 C 
HETATM   12  O5  GAL I   2      62.382  83.446  75.636  1.00 21.12    -0.326 OA
HETATM   13  C5  GAL I   2      62.318  82.013  75.519  1.00 19.51     0.180 C 
HETATM   14  C4  GAL I   2      61.836  81.728  74.099  1.00 19.17     0.177 C 
HETATM   15  C3  GAL I   2      60.406  82.309  73.972  1.00 19.53     0.183 C 
HETATM   16  C2  GAL I   2      60.479  83.827  74.256  1.00 22.15     0.238 C 
HETATM   17  O2  GAL I   2      59.151  84.346  74.264  1.00 22.38    -0.215 OA
BRANCH  13  18
HETATM   18  C6  GAL I   2      63.721  81.474  75.751  1.00 21.72     0.214 C 
HETATM   19  O6  GAL I   2      64.368  82.008  76.909  1.00 21.52    -0.218 OA
ENDBRANCH  13  18
BRANCH  14  20
HETATM   20  O4  GAL I   2      62.668  82.422  73.173  1.00 17.56    -0.327 OA
BRANCH  20  21
HETATM   21  C1  NGA I   3      63.377  81.674  72.198  1.00 20.79     0.262 C 
HETATM   22  C2  NGA I   3      64.878  81.627  72.521  1.00 19.16     0.192 C 
HETATM   23  C3  NGA I   3      65.519  80.844  71.382  1.00 17.33     0.178 C 
HETATM   24  C4  NGA I   3      64.855  79.471  71.169  1.00 17.75     0.211 C 
HETATM   25  C5  NGA I   3      63.370  79.606  70.947  1.00 18.50     0.184 C 
HETATM   26  O4  NGA I   3      65.184  78.643  72.279  1.00 21.37    -0.218 OA
HETATM   27  O5  NGA I   3      62.844  80.352  72.063  1.00 18.52    -0.327 OA
BRANCH  22  28
HETATM   28  N2  NGA I   3      65.322  83.008  72.640  1.00 18.63    -0.232 NA
HETATM   29  C7  NGA I   3      66.133  83.439  73.591  1.00 18.81     0.252 C 
HETATM   30  C8  NGA I   3      66.265  84.962  73.615  1.00 18.13     0.100 C 
HETATM   31  O7  NGA I   3      66.670  82.663  74.442  1.00 18.42    -0.271 OA
ENDBRANCH  22  28
BRANCH  23  32
HETATM   32  O3  NGA I   3      66.890  80.640  71.740  1.00 16.00    -0.327 OA
BRANCH  32  33
HETATM   33  C1  GAL I   4      67.723  80.720  70.618  1.00 13.84     0.270 C 
HETATM   34  C2  GAL I   4      68.728  81.830  70.855  1.00 11.13     0.241 C 
HETATM   35  O2  GAL I   4      68.054  83.088  70.988  1.00 11.75    -0.215 OA
HETATM   36  C3  GAL I   4      69.692  81.885  69.691  1.00 10.40     0.220 C 
HETATM   37  O3  GAL I   4      70.693  82.839  69.976  1.00 10.96    -0.218 OA
HETATM   38  C4  GAL I   4      70.370  80.498  69.533  1.00 10.48     0.215 C 
HETATM   39  O4  GAL I   4      71.187  80.221  70.627  1.00 10.75    -0.218 OA
HETATM   40  C5  GAL I   4      69.291  79.431  69.416  1.00 11.91     0.184 C 
HETATM   41  O5  GAL I   4      68.415  79.447  70.561  1.00 12.52    -0.326 OA
BRANCH  40  42
HETATM   42  C6  GAL I   4      69.875  78.020  69.412  1.00 12.85     0.215 C 
HETATM   43  O6  GAL I   4      70.726  77.792  68.289  1.00 14.53    -0.218 OA
ENDBRANCH  40  42
ENDBRANCH  32  33
ENDBRANCH  23  32
BRANCH  25  44
HETATM   44  C6  NGA I   3      62.535  78.361  70.803  1.00 24.09     0.215 C 
HETATM   45  O6  NGA I   3      62.370  77.939  69.461  1.00 34.45    -0.218 OA
ENDBRANCH  25  44
ENDBRANCH  20  21
ENDBRANCH  14  20
BRANCH  15  46
HETATM   46  O3  GAL I   2      60.021  82.185  72.613  1.00 19.83    -0.324 OA
BRANCH  46  47
HETATM   47  C2  SIA I   5      58.863  81.465  72.198  1.00 19.70     0.271 C 
HETATM   48  C3  SIA I   5      58.225  81.936  70.924  1.00 21.90     0.103 C 
HETATM   49  C4  SIA I   5      56.902  81.264  70.622  1.00 21.98     0.182 C 
HETATM   50  O4  SIA I   5      56.204  81.979  69.595  1.00 23.39    -0.221 OA
HETATM   51  C5  SIA I   5      55.991  81.182  71.856  1.00 21.56     0.166 C 
HETATM   52  C6  SIA I   5      56.755  80.675  73.075  1.00 20.61     0.176 C 
HETATM   53  O6  SIA I   5      57.920  81.498  73.252  1.00 21.33    -0.325 OA
BRANCH  47  54
HETATM   54  C1  SIA I   5      59.315  80.015  72.013  1.00 22.23     0.240 C 
HETATM   55  O1A SIA I   5      59.597  79.385  73.088  1.00 17.82    -0.644 OA
HETATM   56  O1B SIA I   5      59.396  79.602  70.835  1.00 18.18    -0.644 OA
ENDBRANCH  47  54
BRANCH  51  57
HETATM   57  N5  SIA I   5      54.859  80.331  71.484  1.00 19.98    -0.235 NA
HETATM   58  C10 SIA I   5      53.584  80.741  71.495  1.00 19.62     0.252 C 
HETATM   59  O10 SIA I   5      53.267  81.911  71.841  1.00 24.06    -0.271 OA
HETATM   60  C11 SIA I   5      52.562  79.684  71.040  1.00 17.86     0.100 C 
ENDBRANCH  51  57
BRANCH  52  61
HETATM   61  C7  SIA I   5      55.977  80.734  74.404  1.00 20.48     0.214 C 
HETATM   62  O7  SIA I   5      55.292  82.007  74.549  1.00 18.83    -0.218 OA
BRANCH  61  63
HETATM   63  C8  SIA I   5      57.014  80.731  75.545  1.00 17.95     0.218 C 
HETATM   64  O8  SIA I   5      56.754  79.621  76.377  1.00 17.57    -0.218 OA
BRANCH  63  65
HETATM   65  C9  SIA I   5      56.800  81.995  76.385  1.00 20.07     0.218 C 
HETATM   66  O9  SIA I   5      56.802  81.732  77.755  1.00 23.55    -0.218 OA
ENDBRANCH  63  65
ENDBRANCH  61  63
ENDBRANCH  52  61
ENDBRANCH  46  47
ENDBRANCH  15  46
ENDBRANCH  10  11
ENDBRANCH   3  10
BRANCH   4  67
HETATM   67  C6  BGC I   1      59.240  86.591  77.258  1.00 22.08     0.214 C 
HETATM   68  O6  BGC I   1      58.824  85.898  78.405  1.00 27.97    -0.218 OA
ENDBRANCH   4  67
TORSDOF 18
ENDMDL
MODEL 4
REMARK VINA RESULT:      -6.7      1.639      2.645
REMARK  18 active torsions:
REMARK  status: ('A' for Active; 'I' for Inactive)
REMARK    1  A    between atoms: C4_3  and  O4_10 
REMARK    2  A    between atoms: C5_4  and  C6_5 
REMARK    3  A    between atoms: O4_10  and  C1_13 
REMARK    4  A    between atoms: C3_15  and  O3_20 
REMARK    5  A    between atoms: C4_16  and  O4_21 
REMARK    6  A    between atoms: C5_17  and  C6_18 
REMARK    7  A    between atoms: O3_20  and  C2_50 
REMARK    8  A    between atoms: O4_21  and  C1_24 
REMARK    9  A    between atoms: C2_25  and  N2_32 
REMARK   10  A    between atoms: C3_26  and  O3_33 
REMARK   11  A    between atoms: C5_28  and  C6_29 
REMARK       I    between atoms: C7_30  and  N2_32 
REMARK   12  A    between atoms: O3_33  and  C1_38 
REMARK   13  A    between atoms: C5_42  and  C6_43 
REMARK   14  A    between atoms: C1_49  and  C2_50 
REMARK   15  A    between atoms: C5_53  and  N5_60 
REMARK   16  A    between atoms: C6_54  and  C7_55 
REMARK   17  A    between atoms: C7_55  and  C8_56 
REMARK   18  A    between atoms: C8_56  and  C9_57 
REMARK       I    between atoms: C10_58  and  N5_60 
ROOT
HETATM    1  C2  BGC I   1      59.691  81.498  71.577  1.00 21.38     0.244 C 
HETATM    2  C3  BGC I   1      60.935  80.941  70.900  1.00 23.08     0.217 C 
HETATM    3  C4  BGC I   1      61.387  79.705  71.695  1.00 23.78     0.181 C 
HETATM    4  C5  BGC I   1      60.227  78.713  71.702  1.00 23.63     0.181 C 
HETATM    5  C1  BGC I   1      58.586  80.469  71.759  1.00 21.14     0.303 C 
HETATM    6  O1  BGC I   1      57.580  80.983  72.650  1.00 19.41    -0.187 OA
HETATM    7  O2  BGC I   1      59.278  82.607  70.792  1.00 30.88    -0.215 OA
HETATM    8  O3  BGC I   1      61.964  81.910  70.865  1.00 25.83    -0.218 OA
HETATM    9  O5  BGC I   1      59.141  79.327  72.401  1.00 21.93    -0.324 OA
ENDROOT
BRANCH   3  10
HETATM   10  O4  BGC I   1      62.408  79.087  70.921  1.00 24.88    -0.326 OA
BRANCH  10  11
HETATM   11  C1  GAL I   2      63.700  79.028  71.519  1.00 21.60     0.270 C 
HETATM   12  O5  GAL I   2      63.474  79.488  72.851  1.00 21.12    -0.326 OA
HETATM   13  C5  GAL I   2      64.648  79.493  73.684  1.00 19.51     0.180 C 
HETATM   14  C4  GAL I   2      65.561  80.576  73.115  1.00 19.17     0.177 C 
HETATM   15  C3  GAL I   2      65.960  80.139  71.684  1.00 19.53     0.183 C 
HETATM   16  C2  GAL I   2      64.666  79.990  70.851  1.00 22.15     0.238 C 
HETATM   17  O2  GAL I   2      65.015  79.467  69.571  1.00 22.38    -0.215 OA
BRANCH  13  18
HETATM   18  C6  GAL I   2      64.201  79.826  75.099  1.00 21.72     0.214 C 
HETATM   19  O6  GAL I   2      64.751  78.971  76.102  1.00 21.52    -0.218 OA
ENDBRANCH  13  18
BRANCH  14  20
HETATM   20  O4  GAL I   2      64.832  81.796  73.007  1.00 17.56    -0.327 OA
BRANCH  20  21
HETATM   21  C1  NGA I   3      65.292  82.933  73.720  1.00 20.79     0.262 C 
HETATM   22  C2  NGA I   3      64.339  83.287  74.871  1.00 19.16     0.192 C 
HETATM   23  C3  NGA I   3      64.919  84.540  75.515  1.00 17.33     0.178 C 
HETATM   24  C4  NGA I   3      66.393  84.359  75.923  1.00 17.75     0.211 C 
HETATM   25  C5  NGA I   3      67.239  83.927  74.753  1.00 18.50     0.184 C 
HETATM   26  O4  NGA I   3      66.441  83.451  77.017  1.00 21.37    -0.218 OA
HETATM   27  O5  NGA I   3      66.625  82.742  74.205  1.00 18.52    -0.327 OA
BRANCH  22  28
HETATM   28  N2  NGA I   3      63.019  83.458  74.280  1.00 18.63    -0.232 NA
HETATM   29  C7  NGA I   3      62.679  84.493  73.529  1.00 18.81     0.252 C 
HETATM   30  C8  NGA I   3      61.183  84.537  73.220  1.00 18.13     0.100 C 
HETATM   31  O7  NGA I   3      63.507  85.393  73.183  1.00 18.42    -0.271 OA
ENDBRANCH  22  28
BRANCH  23  32
HETATM   32  O3  NGA I   3      64.145  84.797  76.692  1.00 16.00    -0.327 OA
BRANCH  32  33
HETATM   33  C1  GAL I   4      63.840  86.157  76.809  1.00 13.84     0.270 C 
HETATM   34  C2  GAL I   4      62.477  86.281  77.461  1.00 11.13     0.241 C 
HETATM   35  O2  GAL I   4      61.475  85.680  76.630  1.00 11.75    -0.215 OA
HETATM   36  C3  GAL I   4      62.157  87.744  77.673  1.00 10.40     0.220 C 
HETATM   37  O3  GAL I   4      60.942  87.843  78.387  1.00 10.96    -0.218 OA
HETATM   38  C4  GAL I   4      63.280  88.386  78.530  1.00 10.48     0.215 C 
HETATM   39  O4  GAL I   4      63.282  87.856  79.818  1.00 10.75    -0.218 OA
HETATM   40  C5  GAL I   4      64.623  88.118  77.864  1.00 11.91     0.184 C 
HETATM   41  O5  GAL I   4      64.849  86.703  77.696  1.00 12.52    -0.326 OA
BRANCH  40  42
HETATM   42  C6  GAL I   4      65.795  88.584  78.725  1.00 12.85     0.215 C 
HETATM   43  O6  GAL I   4      65.838  90.005  78.854  1.00 14.53    -0.218 OA
ENDBRANCH  40  42
ENDBRANCH  32  33
ENDBRANCH  23  32
BRANCH  25  44
HETATM   44  C6  NGA I   3      68.696  83.618  74.977  1.00 24.09     0.215 C 
HETATM   45  O6  NGA I   3      68.974  82.233  75.078  1.00 34.45    -0.218 OA
ENDBRANCH  25  44
ENDBRANCH  20  21
ENDBRANCH  14  20
BRANCH  15  46
HETATM   46  O3  GAL I   2      66.677  81.215  71.100  1.00 19.83    -0.324 OA
BRANCH  46  47
HETATM   47  C2  SIA I   5      68.101  81.270  71.069  1.00 19.70     0.271 C 
HETATM   48  C3  SIA I   5      68.810  80.269  71.933  1.00 21.90     0.103 C 
HETATM   49  C4  SIA I   5      70.307  80.483  72.009  1.00 21.98     0.182 C 
HETATM   50  O4  SIA I   5      70.864  79.719  73.085  1.00 23.39    -0.221 OA
HETATM   51  C5  SIA I   5      70.677  81.958  72.224  1.00 21.56     0.166 C 
HETATM   52  C6  SIA I   5      69.902  82.867  71.275  1.00 20.61     0.176 C 
HETATM   53  O6  SIA I   5      68.500  82.581  71.420  1.00 21.33    -0.325 OA
BRANCH  47  54
HETATM   54  C1  SIA I   5      68.498  81.029  69.612  1.00 22.23     0.240 C 
HETATM   55  O1A SIA I   5      69.258  80.022  69.408  1.00 17.82    -0.644 OA
HETATM   56  O1B SIA I   5      68.071  81.852  68.772  1.00 18.18    -0.644 OA
ENDBRANCH  47  54
BRANCH  51  57
HETATM   57  N5  SIA I   5      72.129  82.052  72.061  1.00 19.98    -0.235 NA
HETATM   58  C10 SIA I   5      72.956  82.511  73.010  1.00 19.62     0.252 C 
HETATM   59  O10 SIA I   5      72.529  82.907  74.128  1.00 24.06    -0.271 OA
HETATM   60  C11 SIA I   5      74.448  82.496  72.629  1.00 17.86     0.100 C 
ENDBRANCH  51  57
BRANCH  52  61
HETATM   61  C7  SIA I   5      70.065  84.376  71.539  1.00 20.48     0.214 C 
HETATM   62  O7  SIA I   5      68.783  84.995  71.830  1.00 18.83    -0.218 OA
BRANCH  61  63
HETATM   63  C8  SIA I   5      70.506  85.030  70.214  1.00 17.95     0.218 C 
HETATM   64  O8  SIA I   5      69.824  84.392  69.155  1.00 17.57    -0.218 OA
BRANCH  63  65
HETATM   65  C9  SIA I   5      72.003  84.760  70.025  1.00 20.07     0.218 C 
HETATM   66  O9  SIA I   5      72.426  84.991  68.716  1.00 23.55    -0.218 OA
ENDBRANCH  63  65
ENDBRANCH  61  63
ENDBRANCH  52  61
ENDBRANCH  46  47
ENDBRANCH  15  46
ENDBRANCH  10  11
ENDBRANCH   3  10
BRANCH   4  67
HETATM   67  C6  BGC I   1      60.592  77.392  72.377  1.00 22.08     0.214 C 
HETATM   68  O6  BGC I   1      60.198  76.274  71.628  1.00 27.97    -0.218 OA
ENDBRANCH   4  67
TORSDOF 18
ENDMDL
MODEL 5
REMARK VINA RESULT:      -6.6      2.779      9.484
REMARK  18 active torsions:
REMARK  status: ('A' for Active; 'I' for Inactive)
REMARK    1  A    between atoms: C4_3  and  O4_10 
REMARK    2  A    between atoms: C5_4  and  C6_5 
REMARK    3  A    between atoms: O4_10  and  C1_13 
REMARK    4  A    between atoms: C3_15  and  O3_20 
REMARK    5  A    between atoms: C4_16  and  O4_21 
REMARK    6  A    between atoms: C5_17  and  C6_18 
REMARK    7  A    between atoms: O3_20  and  C2_50 
REMARK    8  A    between atoms: O4_21  and  C1_24 
REMARK    9  A    between atoms: C2_25  and  N2_32 
REMARK   10  A    between atoms: C3_26  and  O3_33 
REMARK   11  A    between atoms: C5_28  and  C6_29 
REMARK       I    between atoms: C7_30  and  N2_32 
REMARK   12  A    between atoms: O3_33  and  C1_38 
REMARK   13  A    between atoms: C5_42  and  C6_43 
REMARK   14  A    between atoms: C1_49  and  C2_50 
REMARK   15  A    between atoms: C5_53  and  N5_60 
REMARK   16  A    between atoms: C6_54  and  C7_55 
REMARK   17  A    between atoms: C7_55  and  C8_56 
REMARK   18  A    between atoms: C8_56  and  C9_57 
REMARK       I    between atoms: C10_58  and  N5_60 
ROOT
HETATM    1  C2  BGC I   1      71.216  78.984  70.464  1.00 21.38     0.244 C 
HETATM    2  C3  BGC I   1      70.211  80.041  70.032  1.00 23.08     0.217 C 
HETATM    3  C4  BGC I   1      70.757  81.411  70.465  1.00 23.78     0.181 C 
HETATM    4  C5  BGC I   1      72.122  81.592  69.806  1.00 23.63     0.181 C 
HETATM    5  C1  BGC I   1      72.628  79.248  69.966  1.00 21.14     0.303 C 
HETATM    6  O1  BGC I   1      73.557  78.384  70.646  1.00 19.41    -0.187 OA
HETATM    7  O2  BGC I   1      70.701  77.741  70.009  1.00 30.88    -0.215 OA
HETATM    8  O3  BGC I   1      68.947  79.804  70.620  1.00 25.83    -0.218 OA
HETATM    9  O5  BGC I   1      72.987  80.577  70.324  1.00 21.93    -0.324 OA
ENDROOT
BRANCH   3  10
HETATM   10  O4  BGC I   1      69.913  82.384  69.861  1.00 24.88    -0.326 OA
BRANCH  10  11
HETATM   11  C1  GAL I   2      69.338  83.348  70.738  1.00 21.60     0.270 C 
HETATM   12  O5  GAL I   2      69.387  82.712  72.014  1.00 21.12    -0.326 OA
HETATM   13  C5  GAL I   2      68.879  83.514  73.097  1.00 19.51     0.180 C 
HETATM   14  C4  GAL I   2      67.378  83.644  72.854  1.00 19.17     0.177 C 
HETATM   15  C3  GAL I   2      67.190  84.415  71.524  1.00 19.53     0.183 C 
HETATM   16  C2  GAL I   2      67.881  83.607  70.402  1.00 22.15     0.238 C 
HETATM   17  O2  GAL I   2      67.822  84.371  69.199  1.00 22.38    -0.215 OA
BRANCH  13  18
HETATM   18  C6  GAL I   2      69.174  82.770  74.390  1.00 21.72     0.214 C 
HETATM   19  O6  GAL I   2      70.108  81.698  74.249  1.00 21.52    -0.218 OA
ENDBRANCH  13  18
BRANCH  14  20
HETATM   20  O4  GAL I   2      66.815  82.345  72.683  1.00 17.56    -0.327 OA
BRANCH  20  21
HETATM   21  C1  NGA I   3      65.493  82.108  73.138  1.00 20.79     0.262 C 
HETATM   22  C2  NGA I   3      64.978  80.744  72.656  1.00 19.16     0.192 C 
HETATM   23  C3  NGA I   3      63.547  80.640  73.168  1.00 17.33     0.178 C 
HETATM   24  C4  NGA I   3      63.451  80.871  74.688  1.00 17.75     0.211 C 
HETATM   25  C5  NGA I   3      64.058  82.193  75.082  1.00 18.50     0.184 C 
HETATM   26  O4  NGA I   3      64.050  79.759  75.344  1.00 21.37    -0.218 OA
HETATM   27  O5  NGA I   3      65.404  82.209  74.564  1.00 18.52    -0.327 OA
BRANCH  22  28
HETATM   28  N2  NGA I   3      65.111  80.738  71.206  1.00 18.63    -0.232 NA
HETATM   29  C7  NGA I   3      65.509  79.687  70.509  1.00 18.81     0.252 C 
HETATM   30  C8  NGA I   3      65.769  80.013  69.038  1.00 18.13     0.100 C 
HETATM   31  O7  NGA I   3      65.729  78.553  71.039  1.00 18.42    -0.271 OA
ENDBRANCH  22  28
BRANCH  23  32
HETATM   32  O3  NGA I   3      63.098  79.311  72.877  1.00 16.00    -0.327 OA
BRANCH  32  33
HETATM   33  C1  GAL I   4      61.981  79.328  72.036  1.00 13.84     0.270 C 
HETATM   34  C2  GAL I   4      60.955  78.362  72.596  1.00 11.13     0.241 C 
HETATM   35  O2  GAL I   4      61.480  77.028  72.598  1.00 11.75    -0.215 OA
HETATM   36  C3  GAL I   4      59.703  78.419  71.749  1.00 10.40     0.220 C 
HETATM   37  O3  GAL I   4      58.714  77.607  72.347  1.00 10.96    -0.218 OA
HETATM   38  C4  GAL I   4      59.182  79.881  71.718  1.00 10.48     0.215 C 
HETATM   39  O4  GAL I   4      58.747  80.276  72.982  1.00 10.75    -0.218 OA
HETATM   40  C5  GAL I   4      60.307  80.796  71.254  1.00 11.91     0.184 C 
HETATM   41  O5  GAL I   4      61.461  80.679  72.111  1.00 12.52    -0.326 OA
BRANCH  40  42
HETATM   42  C6  GAL I   4      59.922  82.271  71.345  1.00 12.85     0.215 C 
HETATM   43  O6  GAL I   4      58.829  82.597  70.487  1.00 14.53    -0.218 OA
ENDBRANCH  40  42
ENDBRANCH  32  33
ENDBRANCH  23  32
BRANCH  25  44
HETATM   44  C6  NGA I   3      64.133  82.558  76.542  1.00 24.09     0.215 C 
HETATM   45  O6  NGA I   3      65.411  83.009  76.950  1.00 34.45    -0.218 OA
ENDBRANCH  25  44
ENDBRANCH  20  21
ENDBRANCH  14  20
BRANCH  15  46
HETATM   46  O3  GAL I   2      65.805  84.399  71.220  1.00 19.83    -0.324 OA
BRANCH  46  47
HETATM   47  C2  SIA I   5      64.982  85.560  71.292  1.00 19.70     0.271 C 
HETATM   48  C3  SIA I   5      65.262  86.621  70.268  1.00 21.90     0.103 C 
HETATM   49  C4  SIA I   5      64.493  87.905  70.495  1.00 21.98     0.182 C 
HETATM   50  O4  SIA I   5      65.042  88.961  69.699  1.00 23.39    -0.221 OA
HETATM   51  C5  SIA I   5      64.516  88.348  71.966  1.00 21.56     0.166 C 
HETATM   52  C6  SIA I   5      64.200  87.184  72.900  1.00 20.61     0.176 C 
HETATM   53  O6  SIA I   5      65.096  86.103  72.593  1.00 21.33    -0.325 OA
BRANCH  47  54
HETATM   54  C1  SIA I   5      63.546  85.068  71.108  1.00 22.23     0.240 C 
HETATM   55  O1A SIA I   5      63.075  84.372  72.070  1.00 17.82    -0.644 OA
HETATM   56  O1B SIA I   5      62.988  85.365  70.029  1.00 18.18    -0.644 OA
ENDBRANCH  47  54
BRANCH  51  57
HETATM   57  N5  SIA I   5      63.570  89.460  72.082  1.00 19.98    -0.235 NA
HETATM   58  C10 SIA I   5      63.937  90.729  72.302  1.00 19.62     0.252 C 
HETATM   59  O10 SIA I   5      65.147  91.057  72.433  1.00 24.06    -0.271 OA
HETATM   60  C11 SIA I   5      62.774  91.736  72.361  1.00 17.86     0.100 C 
ENDBRANCH  51  57
BRANCH  52  61
HETATM   61  C7  SIA I   5      64.381  87.484  74.400  1.00 20.48     0.214 C 
HETATM   62  O7  SIA I   5      65.719  87.983  74.673  1.00 18.83    -0.218 OA
BRANCH  61  63
HETATM   63  C8  SIA I   5      64.319  86.138  75.150  1.00 17.95     0.218 C 
HETATM   64  O8  SIA I   5      62.988  85.671  75.114  1.00 17.57    -0.218 OA
BRANCH  63  65
HETATM   65  C9  SIA I   5      64.677  86.395  76.618  1.00 20.07     0.218 C 
HETATM   66  O9  SIA I   5      63.564  86.330  77.458  1.00 23.55    -0.218 OA
ENDBRANCH  63  65
ENDBRANCH  61  63
ENDBRANCH  52  61
ENDBRANCH  46  47
ENDBRANCH  15  46
ENDBRANCH  10  11
ENDBRANCH   3  10
BRANCH   4  67
HETATM   67  C6  BGC I   1      72.724  82.969  70.079  1.00 22.08     0.214 C 
HETATM   68  O6  BGC I   1      72.860  83.740  68.916  1.00 27.97    -0.218 OA
ENDBRANCH   4  67
TORSDOF 18
ENDMDL
MODEL 6
REMARK VINA RESULT:      -6.5      3.961      8.678
REMARK  18 active torsions:
REMARK  status: ('A' for Active; 'I' for Inactive)
REMARK    1  A    between atoms: C4_3  and  O4_10 
REMARK    2  A    between atoms: C5_4  and  C6_5 
REMARK    3  A    between atoms: O4_10  and  C1_13 
REMARK    4  A    between atoms: C3_15  and  O3_20 
REMARK    5  A    between atoms: C4_16  and  O4_21 
REMARK    6  A    between atoms: C5_17  and  C6_18 
REMARK    7  A    between atoms: O3_20  and  C2_50 
REMARK    8  A    between atoms: O4_21  and  C1_24 
REMARK    9  A    between atoms: C2_25  and  N2_32 
REMARK   10  A    between atoms: C3_26  and  O3_33 
REMARK   11  A    between atoms: C5_28  and  C6_29 
REMARK       I    between atoms: C7_30  and  N2_32 
REMARK   12  A    between atoms: O3_33  and  C1_38 
REMARK   13  A    between atoms: C5_42  and  C6_43 
REMARK   14  A    between atoms: C1_49  and  C2_50 
REMARK   15  A    between atoms: C5_53  and  N5_60 
REMARK   16  A    between atoms: C6_54  and  C7_55 
REMARK   17  A    between atoms: C7_55  and  C8_56 
REMARK   18  A    between atoms: C8_56  and  C9_57 
REMARK       I    between atoms: C10_58  and  N5_60 
ROOT
HETATM    1  C2  BGC I   1      55.476  84.395  78.556  1.00 21.38     0.244 C 
HETATM    2  C3  BGC I   1      56.902  84.220  78.058  1.00 23.08     0.217 C 
HETATM    3  C4  BGC I   1      57.167  82.713  77.916  1.00 23.78     0.181 C 
HETATM    4  C5  BGC I   1      56.132  82.152  76.944  1.00 23.63     0.181 C 
HETATM    5  C1  BGC I   1      54.440  83.686  77.696  1.00 21.14     0.303 C 
HETATM    6  O1  BGC I   1      53.175  83.653  78.381  1.00 19.41    -0.187 OA
HETATM    7  O2  BGC I   1      55.254  85.795  78.632  1.00 30.88    -0.215 OA
HETATM    8  O3  BGC I   1      57.825  84.801  78.959  1.00 25.83    -0.218 OA
HETATM    9  O5  BGC I   1      54.844  82.330  77.539  1.00 21.93    -0.324 OA
ENDROOT
BRANCH   3  10
HETATM   10  O4  BGC I   1      58.418  82.590  77.249  1.00 24.88    -0.326 OA
BRANCH  10  11
HETATM   11  C1  GAL I   2      58.484  83.137  75.935  1.00 21.60     0.270 C 
HETATM   12  O5  GAL I   2      58.504  81.985  75.093  1.00 21.12    -0.326 OA
HETATM   13  C5  GAL I   2      58.541  82.281  73.684  1.00 19.51     0.180 C 
HETATM   14  C4  GAL I   2      59.911  82.900  73.421  1.00 19.17     0.177 C 
HETATM   15  C3  GAL I   2      59.978  84.227  74.217  1.00 19.53     0.183 C 
HETATM   16  C2  GAL I   2      59.779  83.897  75.714  1.00 22.15     0.238 C 
HETATM   17  O2  GAL I   2      59.715  85.124  76.438  1.00 22.38    -0.215 OA
BRANCH  13  18
HETATM   18  C6  GAL I   2      58.370  80.966  72.939  1.00 21.72     0.214 C 
HETATM   19  O6  GAL I   2      58.633  79.806  73.731  1.00 21.52    -0.218 OA
ENDBRANCH  13  18
BRANCH  14  20
HETATM   20  O4  GAL I   2      60.923  82.037  73.934  1.00 17.56    -0.327 OA
BRANCH  20  21
HETATM   21  C1  NGA I   3      61.974  81.629  73.074  1.00 20.79     0.262 C 
HETATM   22  C2  NGA I   3      63.280  81.424  73.855  1.00 19.16     0.192 C 
HETATM   23  C3  NGA I   3      64.326  81.040  72.815  1.00 17.33     0.178 C 
HETATM   24  C4  NGA I   3      63.885  79.839  71.958  1.00 17.75     0.211 C 
HETATM   25  C5  NGA I   3      62.553  80.092  71.300  1.00 18.50     0.184 C 
HETATM   26  O4  NGA I   3      63.892  78.680  72.783  1.00 21.37    -0.218 OA
HETATM   27  O5  NGA I   3      61.626  80.446  72.347  1.00 18.52    -0.327 OA
BRANCH  22  28
HETATM   28  N2  NGA I   3      63.545  82.672  74.557  1.00 18.63    -0.232 NA
HETATM   29  C7  NGA I   3      63.857  82.741  75.841  1.00 18.81     0.252 C 
HETATM   30  C8  NGA I   3      63.869  84.174  76.373  1.00 18.13     0.100 C 
HETATM   31  O7  NGA I   3      64.038  81.710  76.561  1.00 18.42    -0.271 OA
ENDBRANCH  22  28
BRANCH  23  32
HETATM   32  O3  NGA I   3      65.512  80.681  73.533  1.00 16.00    -0.327 OA
BRANCH  32  33
HETATM   33  C1  GAL I   4      66.656  81.177  72.899  1.00 13.84     0.270 C 
HETATM   34  C2  GAL I   4      67.584  81.728  73.964  1.00 11.13     0.241 C 
HETATM   35  O2  GAL I   4      66.958  82.820  74.649  1.00 11.75    -0.215 OA
HETATM   36  C3  GAL I   4      68.865  82.198  73.312  1.00 10.40     0.220 C 
HETATM   37  O3  GAL I   4      69.767  82.598  74.323  1.00 10.96    -0.218 OA
HETATM   38  C4  GAL I   4      69.498  81.015  72.533  1.00 10.48     0.215 C 
HETATM   39  O4  GAL I   4      69.918  80.016  73.409  1.00 10.75    -0.218 OA
HETATM   40  C5  GAL I   4      68.464  80.450  71.569  1.00 11.91     0.184 C 
HETATM   41  O5  GAL I   4      67.275  80.028  72.268  1.00 12.52    -0.326 OA
BRANCH  40  42
HETATM   42  C6  GAL I   4      68.958  79.182  70.875  1.00 12.85     0.215 C 
HETATM   43  O6  GAL I   4      69.824  79.472  69.777  1.00 14.53    -0.218 OA
ENDBRANCH  40  42
ENDBRANCH  32  33
ENDBRANCH  23  32
BRANCH  25  44
HETATM   44  C6  NGA I   3      61.917  78.995  70.487  1.00 24.09     0.215 C 
HETATM   45  O6  NGA I   3      62.719  78.551  69.407  1.00 34.45    -0.218 OA
ENDBRANCH  25  44
ENDBRANCH  20  21
ENDBRANCH  14  20
BRANCH  15  46
HETATM   46  O3  GAL I   2      61.302  84.722  74.099  1.00 19.83    -0.324 OA
BRANCH  46  47
HETATM   47  C2  SIA I   5      61.697  85.645  73.088  1.00 19.70     0.271 C 
HETATM   48  C3  SIA I   5      60.634  86.017  72.095  1.00 21.90     0.103 C 
HETATM   49  C4  SIA I   5      61.146  86.852  70.941  1.00 21.98     0.182 C 
HETATM   50  O4  SIA I   5      60.176  86.890  69.887  1.00 23.39    -0.221 OA
HETATM   51  C5  SIA I   5      62.463  86.311  70.365  1.00 21.56     0.166 C 
HETATM   52  C6  SIA I   5      63.460  85.989  71.473  1.00 20.61     0.176 C 
HETATM   53  O6  SIA I   5      62.821  85.111  72.415  1.00 21.33    -0.325 OA
BRANCH  47  54
HETATM   54  C1  SIA I   5      62.143  86.909  73.826  1.00 22.23     0.240 C 
HETATM   55  O1A SIA I   5      61.247  87.809  73.965  1.00 17.82    -0.644 OA
HETATM   56  O1B SIA I   5      63.339  86.951  74.189  1.00 18.18    -0.644 OA
ENDBRANCH  47  54
BRANCH  51  57
HETATM   57  N5  SIA I   5      62.950  87.317  69.419  1.00 19.98    -0.235 NA
HETATM   58  C10 SIA I   5      63.209  87.063  68.130  1.00 19.62     0.252 C 
HETATM   59  O10 SIA I   5      63.054  85.913  67.636  1.00 24.06    -0.271 OA
HETATM   60  C11 SIA I   5      63.687  88.278  67.316  1.00 17.86     0.100 C 
ENDBRANCH  51  57
BRANCH  52  61
HETATM   61  C7  SIA I   5      64.740  85.267  71.009  1.00 20.48     0.214 C 
HETATM   62  O7  SIA I   5      64.997  84.090  71.822  1.00 18.83    -0.218 OA
BRANCH  61  63
HETATM   63  C8  SIA I   5      65.930  86.200  71.311  1.00 17.95     0.218 C 
HETATM   64  O8  SIA I   5      65.421  87.463  71.684  1.00 17.57    -0.218 OA
BRANCH  63  65
HETATM   65  C9  SIA I   5      66.725  86.391  70.014  1.00 20.07     0.218 C 
HETATM   66  O9  SIA I   5      66.485  87.630  69.418  1.00 23.55    -0.218 OA
ENDBRANCH  63  65
ENDBRANCH  61  63
ENDBRANCH  52  61
ENDBRANCH  46  47
ENDBRANCH  15  46
ENDBRANCH  10  11
ENDBRANCH   3  10
BRANCH   4  67
HETATM   67  C6  BGC I   1      56.358  80.673  76.638  1.00 22.08     0.214 C 
HETATM   68  O6  BGC I   1      55.347  79.852  77.160  1.00 27.97    -0.218 OA
ENDBRANCH   4  67
TORSDOF 18
ENDMDL
MODEL 7
REMARK VINA RESULT:      -6.5      3.077      8.715
REMARK  18 active torsions:
REMARK  status: ('A' for Active; 'I' for Inactive)
REMARK    1  A    between atoms: C4_3  and  O4_10 
REMARK    2  A    between atoms: C5_4  and  C6_5 
REMARK    3  A    between atoms: O4_10  and  C1_13 
REMARK    4  A    between atoms: C3_15  and  O3_20 
REMARK    5  A    between atoms: C4_16  and  O4_21 
REMARK    6  A    between atoms: C5_17  and  C6_18 
REMARK    7  A    between atoms: O3_20  and  C2_50 
REMARK    8  A    between atoms: O4_21  and  C1_24 
REMARK    9  A    between atoms: C2_25  and  N2_32 
REMARK   10  A    between atoms: C3_26  and  O3_33 
REMARK   11  A    between atoms: C5_28  and  C6_29 
REMARK       I    between atoms: C7_30  and  N2_32 
REMARK   12  A    between atoms: O3_33  and  C1_38 
REMARK   13  A    between atoms: C5_42  and  C6_43 
REMARK   14  A    between atoms: C1_49  and  C2_50 
REMARK   15  A    between atoms: C5_53  and  N5_60 
REMARK   16  A    between atoms: C6_54  and  C7_55 
REMARK   17  A    between atoms: C7_55  and  C8_56 
REMARK   18  A    between atoms: C8_56  and  C9_57 
REMARK       I    between atoms: C10_58  and  N5_60 
ROOT
HETATM    1  C2  BGC I   1      63.975  79.033  72.195  1.00 21.38     0.244 C 
HETATM    2  C3  BGC I   1      64.291  80.005  73.321  1.00 23.08     0.217 C 
HETATM    3  C4  BGC I   1      63.975  81.423  72.819  1.00 23.78     0.181 C 
HETATM    4  C5  BGC I   1      62.504  81.452  72.413  1.00 23.63     0.181 C 
HETATM    5  C1  BGC I   1      62.561  79.173  71.650  1.00 21.14     0.303 C 
HETATM    6  O1  BGC I   1      62.436  78.439  70.419  1.00 19.41    -0.187 OA
HETATM    7  O2  BGC I   1      64.235  77.736  72.709  1.00 30.88    -0.215 OA
HETATM    8  O3  BGC I   1      65.649  79.907  73.704  1.00 25.83    -0.218 OA
HETATM    9  O5  BGC I   1      62.341  80.540  71.323  1.00 21.93    -0.324 OA
ENDROOT
BRANCH   3  10
HETATM   10  O4  BGC I   1      64.071  82.277  73.953  1.00 24.88    -0.326 OA
BRANCH  10  11
HETATM   11  C1  GAL I   2      65.063  83.297  73.889  1.00 21.60     0.270 C 
HETATM   12  O5  GAL I   2      65.471  83.283  72.521  1.00 21.12    -0.326 OA
HETATM   13  C5  GAL I   2      66.468  84.266  72.189  1.00 19.51     0.180 C 
HETATM   14  C4  GAL I   2      67.741  83.835  72.914  1.00 19.17     0.177 C 
HETATM   15  C3  GAL I   2      67.452  83.903  74.434  1.00 19.53     0.183 C 
HETATM   16  C2  GAL I   2      66.272  82.953  74.739  1.00 22.15     0.238 C 
HETATM   17  O2  GAL I   2      65.918  83.104  76.113  1.00 22.38    -0.215 OA
BRANCH  13  18
HETATM   18  C6  GAL I   2      66.649  84.239  70.679  1.00 21.72     0.214 C 
HETATM   19  O6  GAL I   2      67.853  84.860  70.223  1.00 21.52    -0.218 OA
ENDBRANCH  13  18
BRANCH  14  20
HETATM   20  O4  GAL I   2      68.029  82.478  72.590  1.00 17.56    -0.327 OA
BRANCH  20  21
HETATM   21  C1  NGA I   3      69.342  82.139  72.172  1.00 20.79     0.262 C 
HETATM   22  C2  NGA I   3      69.363  81.730  70.692  1.00 19.16     0.192 C 
HETATM   23  C3  NGA I   3      70.808  81.349  70.391  1.00 17.33     0.178 C 
HETATM   24  C4  NGA I   3      71.799  82.464  70.774  1.00 17.75     0.211 C 
HETATM   25  C5  NGA I   3      71.648  82.864  72.219  1.00 18.50     0.184 C 
HETATM   26  O4  NGA I   3      71.616  83.548  69.869  1.00 21.37    -0.218 OA
HETATM   27  O5  NGA I   3      70.261  83.209  72.417  1.00 18.52    -0.327 OA
BRANCH  22  28
HETATM   28  N2  NGA I   3      68.402  80.647  70.545  1.00 18.63    -0.232 NA
HETATM   29  C7  NGA I   3      67.531  80.567  69.553  1.00 18.81     0.252 C 
HETATM   30  C8  NGA I   3      66.501  79.456  69.755  1.00 18.13     0.100 C 
HETATM   31  O7  NGA I   3      67.514  81.390  68.585  1.00 18.42    -0.271 OA
ENDBRANCH  22  28
BRANCH  23  32
HETATM   32  O3  NGA I   3      70.892  81.124  68.980  1.00 16.00    -0.327 OA
BRANCH  32  33
HETATM   33  C1  GAL I   4      72.081  80.469  68.642  1.00 13.84     0.270 C 
HETATM   34  C2  GAL I   4      71.732  79.275  67.775  1.00 11.13     0.241 C 
HETATM   35  O2  GAL I   4      70.919  78.351  68.508  1.00 11.75    -0.215 OA
HETATM   36  C3  GAL I   4      73.007  78.595  67.329  1.00 10.40     0.220 C 
HETATM   37  O3  GAL I   4      72.676  77.560  66.427  1.00 10.96    -0.218 OA
HETATM   38  C4  GAL I   4      73.894  79.627  66.583  1.00 10.48     0.215 C 
HETATM   39  O4  GAL I   4      73.294  80.023  65.390  1.00 10.75    -0.218 OA
HETATM   40  C5  GAL I   4      74.100  80.840  67.480  1.00 11.91     0.184 C 
HETATM   41  O5  GAL I   4      72.839  81.427  67.861  1.00 12.52    -0.326 OA
BRANCH  40  42
HETATM   42  C6  GAL I   4      74.835  81.969  66.760  1.00 12.85     0.215 C 
HETATM   43  O6  GAL I   4      73.960  83.037  66.398  1.00 14.53    -0.218 OA
ENDBRANCH  40  42
ENDBRANCH  32  33
ENDBRANCH  23  32
BRANCH  25  44
HETATM   44  C6  NGA I   3      72.477  84.001  72.755  1.00 24.09     0.215 C 
HETATM   45  O6  NGA I   3      73.852  83.905  72.430  1.00 34.45    -0.218 OA
ENDBRANCH  25  44
ENDBRANCH  20  21
ENDBRANCH  14  20
BRANCH  15  46
HETATM   46  O3  GAL I   2      68.577  83.355  75.101  1.00 19.83    -0.324 OA
BRANCH  46  47
HETATM   47  C2  SIA I   5      69.557  84.158  75.755  1.00 19.70     0.271 C 
HETATM   48  C3  SIA I   5      69.808  85.505  75.143  1.00 21.90     0.103 C 
HETATM   49  C4  SIA I   5      70.978  86.244  75.757  1.00 21.98     0.182 C 
HETATM   50  O4  SIA I   5      71.361  87.347  74.927  1.00 23.39    -0.221 OA
HETATM   51  C5  SIA I   5      72.204  85.339  75.951  1.00 21.56     0.166 C 
HETATM   52  C6  SIA I   5      71.817  84.012  76.595  1.00 20.61     0.176 C 
HETATM   53  O6  SIA I   5      70.763  83.422  75.815  1.00 21.33    -0.325 OA
BRANCH  47  54
HETATM   54  C1  SIA I   5      69.051  84.356  77.184  1.00 22.23     0.240 C 
HETATM   55  O1A SIA I   5      68.624  85.528  77.460  1.00 17.82    -0.644 OA
HETATM   56  O1B SIA I   5      69.134  83.368  77.948  1.00 18.18    -0.644 OA
ENDBRANCH  47  54
BRANCH  51  57
HETATM   57  N5  SIA I   5      73.170  86.107  76.740  1.00 19.98    -0.235 NA
HETATM   58  C10 SIA I   5      74.438  86.319  76.364  1.00 19.62     0.252 C 
HETATM   59  O10 SIA I   5      74.896  85.854  75.285  1.00 24.06    -0.271 OA
HETATM   60  C11 SIA I   5      75.266  87.177  77.337  1.00 17.86     0.100 C 
ENDBRANCH  51  57
BRANCH  52  61
HETATM   61  C7  SIA I   5      72.945  82.964  76.661  1.00 20.48     0.214 C 
HETATM   62  O7  SIA I   5      72.683  81.860  75.754  1.00 18.83    -0.218 OA
BRANCH  61  63
HETATM   63  C8  SIA I   5      72.895  82.321  78.062  1.00 17.95     0.218 C 
HETATM   64  O8  SIA I   5      71.883  81.338  78.063  1.00 17.57    -0.218 OA
BRANCH  63  65
HETATM   65  C9  SIA I   5      72.486  83.403  79.067  1.00 20.07     0.218 C 
HETATM   66  O9  SIA I   5      73.575  84.149  79.521  1.00 23.55    -0.218 OA
ENDBRANCH  63  65
ENDBRANCH  61  63
ENDBRANCH  52  61
ENDBRANCH  46  47
ENDBRANCH  15  46
ENDBRANCH  10  11
ENDBRANCH   3  10
BRANCH   4  67
HETATM   67  C6  BGC I   1      62.041  82.845  71.992  1.00 22.08     0.214 C 
HETATM   68  O6  BGC I   1      60.842  82.820  71.264  1.00 27.97    -0.218 OA
ENDBRANCH   4  67
TORSDOF 18
ENDMDL
MODEL 8
REMARK VINA RESULT:      -6.4     10.460     14.926
REMARK  18 active torsions:
REMARK  status: ('A' for Active; 'I' for Inactive)
REMARK    1  A    between atoms: C4_3  and  O4_10 
REMARK    2  A    between atoms: C5_4  and  C6_5 
REMARK    3  A    between atoms: O4_10  and  C1_13 
REMARK    4  A    between atoms: C3_15  and  O3_20 
REMARK    5  A    between atoms: C4_16  and  O4_21 
REMARK    6  A    between atoms: C5_17  and  C6_18 
REMARK    7  A    between atoms: O3_20  and  C2_50 
REMARK    8  A    between atoms: O4_21  and  C1_24 
REMARK    9  A    between atoms: C2_25  and  N2_32 
REMARK   10  A    between atoms: C3_26  and  O3_33 
REMARK   11  A    between atoms: C5_28  and  C6_29 
REMARK       I    between atoms: C7_30  and  N2_32 
REMARK   12  A    between atoms: O3_33  and  C1_38 
REMARK   13  A    between atoms: C5_42  and  C6_43 
REMARK   14  A    between atoms: C1_49  and  C2_50 
REMARK   15  A    between atoms: C5_53  and  N5_60 
REMARK   16  A    between atoms: C6_54  and  C7_55 
REMARK   17  A    between atoms: C7_55  and  C8_56 
REMARK   18  A    between atoms: C8_56  and  C9_57 
REMARK       I    between atoms: C10_58  and  N5_60 
ROOT
HETATM    1  C2  BGC I   1      56.793  74.125  66.161  1.00 21.38     0.244 C 
HETATM    2  C3  BGC I   1      56.181  74.648  67.452  1.00 23.08     0.217 C 
HETATM    3  C4  BGC I   1      56.997  74.076  68.623  1.00 23.78     0.181 C 
HETATM    4  C5  BGC I   1      58.446  74.520  68.436  1.00 23.63     0.181 C 
HETATM    5  C1  BGC I   1      58.285  74.400  66.040  1.00 21.14     0.303 C 
HETATM    6  O1  BGC I   1      58.837  73.635  64.954  1.00 19.41    -0.187 OA
HETATM    7  O2  BGC I   1      56.045  74.708  65.105  1.00 30.88    -0.215 OA
HETATM    8  O3  BGC I   1      54.825  74.261  67.559  1.00 25.83    -0.218 OA
HETATM    9  O5  BGC I   1      58.922  73.932  67.223  1.00 21.93    -0.324 OA
ENDROOT
BRANCH   3  10
HETATM   10  O4  BGC I   1      56.542  74.749  69.790  1.00 24.88    -0.326 OA
BRANCH  10  11
HETATM   11  C1  GAL I   2      55.567  74.064  70.570  1.00 21.60     0.270 C 
HETATM   12  O5  GAL I   2      54.500  75.007  70.675  1.00 21.12    -0.326 OA
HETATM   13  C5  GAL I   2      53.357  74.529  71.409  1.00 19.51     0.180 C 
HETATM   14  C4  GAL I   2      53.817  74.393  72.859  1.00 19.17     0.177 C 
HETATM   15  C3  GAL I   2      54.925  73.312  72.892  1.00 19.53     0.183 C 
HETATM   16  C2  GAL I   2      56.075  73.778  71.971  1.00 22.15     0.238 C 
HETATM   17  O2  GAL I   2      57.042  72.732  71.898  1.00 22.38    -0.215 OA
BRANCH  13  18
HETATM   18  C6  GAL I   2      52.258  75.571  71.267  1.00 21.72     0.214 C 
HETATM   19  O6  GAL I   2      52.680  76.784  70.642  1.00 21.52    -0.218 OA
ENDBRANCH  13  18
BRANCH  14  20
HETATM   20  O4  GAL I   2      54.399  75.622  73.285  1.00 17.56    -0.327 OA
BRANCH  20  21
HETATM   21  C1  NGA I   3      53.829  76.301  74.392  1.00 20.79     0.262 C 
HETATM   22  C2  NGA I   3      53.644  77.795  74.089  1.00 19.16     0.192 C 
HETATM   23  C3  NGA I   3      53.077  78.406  75.365  1.00 17.33     0.178 C 
HETATM   24  C4  NGA I   3      51.809  77.678  75.848  1.00 17.75     0.211 C 
HETATM   25  C5  NGA I   3      52.058  76.203  76.034  1.00 18.50     0.184 C 
HETATM   26  O4  NGA I   3      50.759  77.959  74.929  1.00 21.37    -0.218 OA
HETATM   27  O5  NGA I   3      52.589  75.706  74.789  1.00 18.52    -0.327 OA
BRANCH  22  28
HETATM   28  N2  NGA I   3      54.950  78.305  73.696  1.00 18.63    -0.232 NA
HETATM   29  C7  NGA I   3      55.972  78.427  74.528  1.00 18.81     0.252 C 
HETATM   30  C8  NGA I   3      57.149  79.186  73.915  1.00 18.13     0.100 C 
HETATM   31  O7  NGA I   3      55.929  78.027  75.733  1.00 18.42    -0.271 OA
ENDBRANCH  22  28
BRANCH  23  32
HETATM   32  O3  NGA I   3      52.739  79.763  75.059  1.00 16.00    -0.327 OA
BRANCH  32  33
HETATM   33  C1  GAL I   4      52.651  80.537  76.221  1.00 13.84     0.270 C 
HETATM   34  C2  GAL I   4      53.599  81.712  76.079  1.00 11.13     0.241 C 
HETATM   35  O2  GAL I   4      54.950  81.247  75.965  1.00 11.75    -0.215 OA
HETATM   36  C3  GAL I   4      53.465  82.608  77.290  1.00 10.40     0.220 C 
HETATM   37  O3  GAL I   4      54.262  83.758  77.092  1.00 10.96    -0.218 OA
HETATM   38  C4  GAL I   4      51.985  83.057  77.423  1.00 10.48     0.215 C 
HETATM   39  O4  GAL I   4      51.621  83.879  76.358  1.00 10.75    -0.218 OA
HETATM   40  C5  GAL I   4      51.096  81.822  77.444  1.00 11.91     0.184 C 
HETATM   41  O5  GAL I   4      51.285  81.022  76.260  1.00 12.52    -0.326 OA
BRANCH  40  42
HETATM   42  C6  GAL I   4      49.612  82.182  77.418  1.00 12.85     0.215 C 
HETATM   43  O6  GAL I   4      49.274  83.151  78.410  1.00 14.53    -0.218 OA
ENDBRANCH  40  42
ENDBRANCH  32  33
ENDBRANCH  23  32
BRANCH  25  44
HETATM   44  C6  NGA I   3      50.909  75.310  76.424  1.00 24.09     0.215 C 
HETATM   45  O6  NGA I   3      50.448  74.486  75.369  1.00 34.45    -0.218 OA
ENDBRANCH  25  44
ENDBRANCH  20  21
ENDBRANCH  14  20
BRANCH  15  46
HETATM   46  O3  GAL I   2      55.459  73.297  74.206  1.00 19.83    -0.324 OA
BRANCH  46  47
HETATM   47  C2  SIA I   5      55.452  72.135  75.032  1.00 19.70     0.271 C 
HETATM   48  C3  SIA I   5      54.994  70.869  74.369  1.00 21.90     0.103 C 
HETATM   49  C4  SIA I   5      54.830  69.707  75.326  1.00 21.98     0.182 C 
HETATM   50  O4  SIA I   5      54.092  68.650  74.703  1.00 23.39    -0.221 OA
HETATM   51  C5  SIA I   5      54.099  70.110  76.616  1.00 21.56     0.166 C 
HETATM   52  C6  SIA I   5      54.669  71.400  77.195  1.00 20.61     0.176 C 
HETATM   53  O6  SIA I   5      54.651  72.404  76.167  1.00 21.33    -0.325 OA
BRANCH  47  54
HETATM   54  C1  SIA I   5      56.895  71.948  75.504  1.00 22.23     0.240 C 
HETATM   55  O1A SIA I   5      57.509  70.943  75.010  1.00 17.82    -0.644 OA
HETATM   56  O1B SIA I   5      57.319  72.772  76.344  1.00 18.18    -0.644 OA
ENDBRANCH  47  54
BRANCH  51  57
HETATM   57  N5  SIA I   5      54.201  68.968  77.528  1.00 19.98    -0.235 NA
HETATM   58  C10 SIA I   5      53.142  68.309  78.016  1.00 19.62     0.252 C 
HETATM   59  O10 SIA I   5      51.962  68.640  77.723  1.00 24.06    -0.271 OA
HETATM   60  C11 SIA I   5      53.488  67.125  78.937  1.00 17.86     0.100 C 
ENDBRANCH  51  57
BRANCH  52  61
HETATM   61  C7  SIA I   5      53.882  71.985  78.384  1.00 20.48     0.214 C 
HETATM   62  O7  SIA I   5      52.924  72.981  77.934  1.00 18.83    -0.218 OA
BRANCH  61  63
HETATM   63  C8  SIA I   5      54.879  72.784  79.248  1.00 17.95     0.218 C 
HETATM   64  O8  SIA I   5      55.111  74.028  78.623  1.00 17.57    -0.218 OA
BRANCH  63  65
HETATM   65  C9  SIA I   5      56.209  72.023  79.266  1.00 20.07     0.218 C 
HETATM   66  O9  SIA I   5      57.058  72.456  80.285  1.00 23.55    -0.218 OA
ENDBRANCH  63  65
ENDBRANCH  61  63
ENDBRANCH  52  61
ENDBRANCH  46  47
ENDBRANCH  15  46
ENDBRANCH  10  11
ENDBRANCH   3  10
BRANCH   4  67
HETATM   67  C6  BGC I   1      59.341  74.098  69.599  1.00 22.08     0.214 C 
HETATM   68  O6  BGC I   1      59.750  75.183  70.388  1.00 27.97    -0.218 OA
ENDBRANCH   4  67
TORSDOF 18
ENDMDL
MODEL 9
REMARK VINA RESULT:      -6.4      7.843     13.293
REMARK  18 active torsions:
REMARK  status: ('A' for Active; 'I' for Inactive)
REMARK    1  A    between atoms: C4_3  and  O4_10 
REMARK    2  A    between atoms: C5_4  and  C6_5 
REMARK    3  A    between atoms: O4_10  and  C1_13 
REMARK    4  A    between atoms: C3_15  and  O3_20 
REMARK    5  A    between atoms: C4_16  and  O4_21 
REMARK    6  A    between atoms: C5_17  and  C6_18 
REMARK    7  A    between atoms: O3_20  and  C2_50 
REMARK    8  A    between atoms: O4_21  and  C1_24 
REMARK    9  A    between atoms: C2_25  and  N2_32 
REMARK   10  A    between atoms: C3_26  and  O3_33 
REMARK   11  A    between atoms: C5_28  and  C6_29 
REMARK       I    between atoms: C7_30  and  N2_32 
REMARK   12  A    between atoms: O3_33  and  C1_38 
REMARK   13  A    between atoms: C5_42  and  C6_43 
REMARK   14  A    between atoms: C1_49  and  C2_50 
REMARK   15  A    between atoms: C5_53  and  N5_60 
REMARK   16  A    between atoms: C6_54  and  C7_55 
REMARK   17  A    between atoms: C7_55  and  C8_56 
REMARK   18  A    between atoms: C8_56  and  C9_57 
REMARK       I    between atoms: C10_58  and  N5_60 
ROOT
HETATM    1  C2  BGC I   1      54.392  85.981  76.621  1.00 21.38     0.244 C 
HETATM    2  C3  BGC I   1      54.058  84.497  76.653  1.00 23.08     0.217 C 
HETATM    3  C4  BGC I   1      55.113  83.798  77.525  1.00 23.78     0.181 C 
HETATM    4  C5  BGC I   1      55.068  84.442  78.909  1.00 23.63     0.181 C 
HETATM    5  C1  BGC I   1      54.532  86.603  78.002  1.00 21.14     0.303 C 
HETATM    6  O1  BGC I   1      55.124  87.909  77.893  1.00 19.41    -0.187 OA
HETATM    7  O2  BGC I   1      53.374  86.597  75.847  1.00 30.88    -0.215 OA
HETATM    8  O3  BGC I   1      54.056  83.953  75.348  1.00 25.83    -0.218 OA
HETATM    9  O5  BGC I   1      55.444  85.813  78.757  1.00 21.93    -0.324 OA
ENDROOT
BRANCH   3  10
HETATM   10  O4  BGC I   1      54.654  82.465  77.713  1.00 24.88    -0.326 OA
BRANCH  10  11
HETATM   11  C1  GAL I   2      55.605  81.433  77.470  1.00 21.60     0.270 C 
HETATM   12  O5  GAL I   2      56.668  82.108  76.798  1.00 21.12    -0.326 OA
HETATM   13  C5  GAL I   2      57.788  81.267  76.463  1.00 19.51     0.180 C 
HETATM   14  C4  GAL I   2      57.284  80.304  75.392  1.00 19.17     0.177 C 
HETATM   15  C3  GAL I   2      56.176  79.435  76.036  1.00 19.53     0.183 C 
HETATM   16  C2  GAL I   2      55.054  80.378  76.527  1.00 22.15     0.238 C 
HETATM   17  O2  GAL I   2      54.090  79.599  77.233  1.00 22.38    -0.215 OA
BRANCH  13  18
HETATM   18  C6  GAL I   2      58.890  82.169  75.930  1.00 21.72     0.214 C 
HETATM   19  O6  GAL I   2      60.079  81.474  75.548  1.00 21.52    -0.218 OA
ENDBRANCH  13  18
BRANCH  14  20
HETATM   20  O4  GAL I   2      56.688  81.049  74.333  1.00 17.56    -0.327 OA
BRANCH  20  21
HETATM   21  C1  NGA I   3      57.053  80.748  72.995  1.00 20.79     0.262 C 
HETATM   22  C2  NGA I   3      56.276  81.623  72.000  1.00 19.16     0.192 C 
HETATM   23  C3  NGA I   3      56.724  81.168  70.616  1.00 17.33     0.178 C 
HETATM   24  C4  NGA I   3      58.255  81.203  70.456  1.00 17.75     0.211 C 
HETATM   25  C5  NGA I   3      58.939  80.391  71.526  1.00 18.50     0.184 C 
HETATM   26  O4  NGA I   3      58.667  82.565  70.434  1.00 21.37    -0.218 OA
HETATM   27  O5  NGA I   3      58.464  80.884  72.796  1.00 18.52    -0.327 OA
BRANCH  22  28
HETATM   28  N2  NGA I   3      54.862  81.419  72.283  1.00 18.63    -0.232 NA
HETATM   29  C7  NGA I   3      53.964  82.390  72.271  1.00 18.81     0.252 C 
HETATM   30  C8  NGA I   3      52.604  81.947  72.813  1.00 18.13     0.100 C 
HETATM   31  O7  NGA I   3      54.241  83.580  71.924  1.00 18.42    -0.271 OA
ENDBRANCH  22  28
BRANCH  23  32
HETATM   32  O3  NGA I   3      56.142  82.075  69.674  1.00 16.00    -0.327 OA
BRANCH  32  33
HETATM   33  C1  GAL I   4      55.952  81.461  68.431  1.00 13.84     0.270 C 
HETATM   34  C2  GAL I   4      54.461  81.314  68.201  1.00 11.13     0.241 C 
HETATM   35  O2  GAL I   4      53.887  80.462  69.200  1.00 11.75    -0.215 OA
HETATM   36  C3  GAL I   4      54.226  80.725  66.828  1.00 10.40     0.220 C 
HETATM   37  O3  GAL I   4      52.836  80.703  66.576  1.00 10.96    -0.218 OA
HETATM   38  C4  GAL I   4      54.900  81.635  65.767  1.00 10.48     0.215 C 
HETATM   39  O4  GAL I   4      54.269  82.875  65.708  1.00 10.75    -0.218 OA
HETATM   40  C5  GAL I   4      56.365  81.822  66.137  1.00 11.91     0.184 C 
HETATM   41  O5  GAL I   4      56.502  82.384  67.458  1.00 12.52    -0.326 OA
BRANCH  40  42
HETATM   42  C6  GAL I   4      57.063  82.831  65.227  1.00 12.85     0.215 C 
HETATM   43  O6  GAL I   4      57.523  83.976  65.945  1.00 14.53    -0.218 OA
ENDBRANCH  40  42
ENDBRANCH  32  33
ENDBRANCH  23  32
BRANCH  25  44
HETATM   44  C6  NGA I   3      60.444  80.375  71.583  1.00 24.09     0.215 C 
HETATM   45  O6  NGA I   3      60.967  79.494  72.560  1.00 34.45    -0.218 OA
ENDBRANCH  25  44
ENDBRANCH  20  21
ENDBRANCH  14  20
BRANCH  15  46
HETATM   46  O3  GAL I   2      55.601  78.651  75.003  1.00 19.83    -0.324 OA
BRANCH  46  47
HETATM   47  C2  SIA I   5      55.229  77.287  75.181  1.00 19.70     0.271 C 
HETATM   48  C3  SIA I   5      55.235  76.791  76.598  1.00 21.90     0.103 C 
HETATM   49  C4  SIA I   5      55.012  75.298  76.720  1.00 21.98     0.182 C 
HETATM   50  O4  SIA I   5      55.353  74.852  78.038  1.00 23.39    -0.221 OA
HETATM   51  C5  SIA I   5      55.847  74.498  75.710  1.00 21.56     0.166 C 
HETATM   52  C6  SIA I   5      55.742  75.094  74.310  1.00 20.61     0.176 C 
HETATM   53  O6  SIA I   5      56.083  76.488  74.386  1.00 21.33    -0.325 OA
BRANCH  47  54
HETATM   54  C1  SIA I   5      53.810  77.163  74.624  1.00 22.23     0.240 C 
HETATM   55  O1A SIA I   5      53.705  77.282  73.356  1.00 17.82    -0.644 OA
HETATM   56  O1B SIA I   5      52.895  76.993  75.459  1.00 18.18    -0.644 OA
ENDBRANCH  47  54
BRANCH  51  57
HETATM   57  N5  SIA I   5      55.379  73.112  75.787  1.00 19.98    -0.235 NA
HETATM   58  C10 SIA I   5      56.185  72.067  76.021  1.00 19.62     0.252 C 
HETATM   59  O10 SIA I   5      57.426  72.210  76.187  1.00 24.06    -0.271 OA
HETATM   60  C11 SIA I   5      55.472  70.704  76.086  1.00 17.86     0.100 C 
ENDBRANCH  51  57
BRANCH  52  61
HETATM   61  C7  SIA I   5      56.689  74.473  73.264  1.00 20.48     0.214 C 
HETATM   62  O7  SIA I   5      57.588  75.475  72.718  1.00 18.83    -0.218 OA
BRANCH  61  63
HETATM   63  C8  SIA I   5      55.827  74.044  72.059  1.00 17.95     0.218 C 
HETATM   64  O8  SIA I   5      55.370  72.728  72.287  1.00 17.57    -0.218 OA
BRANCH  63  65
HETATM   65  C9  SIA I   5      56.725  74.011  70.819  1.00 20.07     0.218 C 
HETATM   66  O9  SIA I   5      56.053  74.407  69.662  1.00 23.55    -0.218 OA
ENDBRANCH  63  65
ENDBRANCH  61  63
ENDBRANCH  52  61
ENDBRANCH  46  47
ENDBRANCH  15  46
ENDBRANCH  10  11
ENDBRANCH   3  10
BRANCH   4  67
HETATM   67  C6  BGC I   1      56.006  83.758  79.902  1.00 22.08     0.214 C 
HETATM   68  O6  BGC I   1      57.357  84.033  79.647  1.00 27.97    -0.218 OA
ENDBRANCH   4  67
TORSDOF 18
ENDMDL
