MODEL 1
REMARK VINA RESULT:      -7.3      0.000      0.000
REMARK  18 active torsions:
REMARK  status: ('A' for Active; 'I' for Inactive)
REMARK    1  A    between atoms: C4_4162  and  O4_4169 
REMARK    2  A    between atoms: C5_4163  and  C6_4164 
REMARK    3  A    between atoms: O4_4169  and  C1_4172 
REMARK    4  A    between atoms: C3_4174  and  O3_4179 
REMARK    5  A    between atoms: C4_4175  and  O4_4180 
REMARK    6  A    between atoms: C5_4176  and  C6_4177 
REMARK    7  A    between atoms: O3_4179  and  C2_4209 
REMARK    8  A    between atoms: O4_4180  and  C1_4183 
REMARK    9  A    between atoms: C2_4184  and  N2_4191 
REMARK   10  A    between atoms: C3_4185  and  O3_4192 
REMARK   11  A    between atoms: C5_4187  and  C6_4188 
REMARK       I    between atoms: C7_4189  and  N2_4191 
REMARK   12  A    between atoms: O3_4192  and  C1_4197 
REMARK   13  A    between atoms: C5_4201  and  C6_4202 
REMARK   14  A    between atoms: C1_4208  and  C2_4209 
REMARK   15  A    between atoms: C5_4212  and  N5_4219 
REMARK   16  A    between atoms: C6_4213  and  C7_4214 
REMARK   17  A    between atoms: C7_4214  and  C8_4215 
REMARK   18  A    between atoms: C8_4215  and  C9_4216 
REMARK       I    between atoms: C10_4217  and  N5_4219 
ROOT
HETATM    1  C2  BGC B   1      59.676  81.338  71.177  1.00 23.00     0.244 C 
HETATM    2  C3  BGC B   1      61.002  80.766  70.701  1.00 22.71     0.217 C 
HETATM    3  C4  BGC B   1      61.361  79.554  71.578  1.00 19.49     0.181 C 
HETATM    4  C5  BGC B   1      60.213  78.535  71.486  1.00 21.23     0.181 C 
HETATM    5  C1  BGC B   1      58.598  80.246  71.119  1.00 23.10     0.303 C 
HETATM    6  O1  BGC B   1      57.398  80.758  71.694  1.00 30.29    -0.187 OA
HETATM    7  O2  BGC B   1      59.242  82.476  70.449  1.00 24.46    -0.215 OA
HETATM    8  O3  BGC B   1      62.008  81.761  70.742  1.00 20.09    -0.218 OA
HETATM    9  O5  BGC B   1      59.043  79.194  71.985  1.00 23.03    -0.324 OA
ENDROOT
BRANCH   3  10
HETATM   10  O4  BGC B   1      62.558  78.958  71.057  1.00 18.81    -0.326 OA
BRANCH  10  11
HETATM   11  C1  GAL B   2      63.739  79.100  71.835  1.00 18.29     0.270 C 
HETATM   12  C2  GAL B   2      64.808  79.715  70.992  1.00 21.36     0.238 C 
HETATM   13  C3  GAL B   2      66.030  80.124  71.807  1.00 18.89     0.183 C 
HETATM   14  O2  GAL B   2      65.169  78.833  69.945  1.00 21.67    -0.215 OA
HETATM   15  C4  GAL B   2      65.635  80.897  73.068  1.00 18.64     0.177 C 
HETATM   16  C5  GAL B   2      64.595  80.098  73.839  1.00 18.34     0.180 C 
HETATM   17  O5  GAL B   2      63.451  79.903  72.974  1.00 18.97    -0.326 OA
BRANCH  13  18
HETATM   18  O3  GAL B   2      66.797  80.917  70.913  1.00 18.86    -0.324 OA
BRANCH  18  19
HETATM   19  C2  SIA B   5      68.144  80.533  70.686  1.00 20.42     0.271 C 
HETATM   20  C3  SIA B   5      68.315  79.454  69.651  1.00 21.15     0.103 C 
HETATM   21  C4  SIA B   5      69.796  79.079  69.492  1.00 19.84     0.182 C 
HETATM   22  C5  SIA B   5      70.432  78.775  70.862  1.00 19.94     0.166 C 
HETATM   23  O4  SIA B   5      69.845  77.855  68.737  1.00 25.26    -0.221 OA
HETATM   24  C6  SIA B   5      70.154  79.910  71.830  1.00 20.62     0.176 C 
HETATM   25  O6  SIA B   5      68.720  80.156  71.940  1.00 20.84    -0.325 OA
BRANCH  19  26
HETATM   26  C1  SIA B   5      68.809  81.819  70.225  1.00 20.04     0.240 C 
HETATM   27  O1A SIA B   5      68.992  82.687  71.105  1.00 18.86    -0.644 OA
HETATM   28  O1B SIA B   5      69.085  81.950  69.010  1.00 20.53    -0.644 OA
ENDBRANCH  19  26
BRANCH  22  29
HETATM   29  N5  SIA B   5      71.833  78.442  70.705  1.00 20.57    -0.235 NA
HETATM   30  C10 SIA B   5      72.799  79.232  70.193  1.00 24.13     0.252 C 
HETATM   31  C11 SIA B   5      74.194  78.561  70.210  1.00 22.96     0.100 C 
HETATM   32  O10 SIA B   5      72.573  80.405  69.775  1.00 26.68    -0.271 OA
ENDBRANCH  22  29
BRANCH  24  33
HETATM   33  C7  SIA B   5      70.629  79.673  73.257  1.00 19.74     0.214 C 
HETATM   34  O7  SIA B   5      69.567  79.281  74.136  1.00 22.57    -0.218 OA
BRANCH  33  35
HETATM   35  C8  SIA B   5      71.194  81.032  73.760  1.00 19.54     0.218 C 
HETATM   36  O8  SIA B   5      72.032  81.560  72.756  1.00 19.73    -0.218 OA
BRANCH  35  37
HETATM   37  C9  SIA B   5      72.059  80.728  74.969  1.00 20.72     0.218 C 
HETATM   38  O9  SIA B   5      71.503  81.160  76.185  1.00 21.01    -0.218 OA
ENDBRANCH  35  37
ENDBRANCH  33  35
ENDBRANCH  24  33
ENDBRANCH  18  19
ENDBRANCH  13  18
BRANCH  15  39
HETATM   39  O4  GAL B   2      65.054  82.135  72.631  1.00 21.34    -0.327 OA
BRANCH  39  40
HETATM   40  C1  NGA B   3      65.676  83.258  73.275  1.00 19.80     0.262 C 
HETATM   41  C2  NGA B   3      64.683  83.891  74.269  1.00 20.60     0.192 C 
HETATM   42  C3  NGA B   3      65.375  85.001  75.059  1.00 18.92     0.178 C 
HETATM   43  C4  NGA B   3      66.647  84.464  75.711  1.00 18.56     0.211 C 
HETATM   44  C5  NGA B   3      67.510  83.793  74.635  1.00 20.83     0.184 C 
HETATM   45  O4  NGA B   3      66.368  83.519  76.734  1.00 25.94    -0.218 OA
HETATM   46  O5  NGA B   3      66.771  82.706  74.036  1.00 19.30    -0.327 OA
BRANCH  41  47
HETATM   47  N2  NGA B   3      63.560  84.346  73.444  1.00 20.03    -0.232 NA
HETATM   48  C7  NGA B   3      62.264  84.139  73.758  1.00 20.86     0.252 C 
HETATM   49  C8  NGA B   3      61.265  84.569  72.666  1.00 25.36     0.100 C 
HETATM   50  O7  NGA B   3      61.949  83.587  74.829  1.00 33.51    -0.271 OA
ENDBRANCH  41  47
BRANCH  42  51
HETATM   51  O3  NGA B   3      64.502  85.526  76.086  1.00 18.48    -0.327 OA
BRANCH  51  52
HETATM   52  C1  GAL B   4      64.628  86.915  76.337  1.00 17.31     0.270 C 
HETATM   53  C2  GAL B   4      63.498  87.722  75.713  1.00 14.28     0.241 C 
HETATM   54  C3  GAL B   4      63.626  89.204  76.034  1.00 14.14     0.220 C 
HETATM   55  O2  GAL B   4      63.530  87.568  74.296  1.00 16.82    -0.215 OA
HETATM   56  C4  GAL B   4      63.757  89.397  77.537  1.00 13.05     0.215 C 
HETATM   57  O3  GAL B   4      62.524  89.924  75.519  1.00 14.59    -0.218 OA
HETATM   58  C5  GAL B   4      64.828  88.470  78.099  1.00 15.75     0.184 C 
HETATM   59  O4  GAL B   4      62.490  89.173  78.146  1.00 13.46    -0.218 OA
HETATM   60  O5  GAL B   4      64.606  87.091  77.766  1.00 16.29    -0.326 OA
BRANCH  58  61
HETATM   61  C6  GAL B   4      64.955  88.597  79.621  1.00 16.07     0.215 C 
HETATM   62  O6  GAL B   4      64.087  87.743  80.348  1.00 17.63    -0.218 OA
ENDBRANCH  58  61
ENDBRANCH  51  52
ENDBRANCH  42  51
BRANCH  44  63
HETATM   63  C6  NGA B   3      68.798  83.211  75.236  1.00 23.22     0.215 C 
HETATM   64  O6  NGA B   3      69.724  84.265  75.441  1.00 34.06    -0.218 OA
ENDBRANCH  44  63
ENDBRANCH  39  40
ENDBRANCH  15  39
BRANCH  16  65
HETATM   65  C6  GAL B   2      64.111  80.706  75.119  1.00 20.92     0.214 C 
HETATM   66  O6  GAL B   2      64.377  79.862  76.241  1.00 21.47    -0.218 OA
ENDBRANCH  16  65
ENDBRANCH  10  11
ENDBRANCH   3  10
BRANCH   4  67
HETATM   67  C6  BGC B   1      60.464  77.350  72.429  1.00 24.07     0.214 C 
HETATM   68  O6  BGC B   1      60.046  76.123  71.775  1.00 26.88    -0.218 OA
ENDBRANCH   4  67
TORSDOF 18
ENDMDL
MODEL 2
REMARK VINA RESULT:      -7.0      4.052      9.092
REMARK  18 active torsions:
REMARK  status: ('A' for Active; 'I' for Inactive)
REMARK    1  A    between atoms: C4_4162  and  O4_4169 
REMARK    2  A    between atoms: C5_4163  and  C6_4164 
REMARK    3  A    between atoms: O4_4169  and  C1_4172 
REMARK    4  A    between atoms: C3_4174  and  O3_4179 
REMARK    5  A    between atoms: C4_4175  and  O4_4180 
REMARK    6  A    between atoms: C5_4176  and  C6_4177 
REMARK    7  A    between atoms: O3_4179  and  C2_4209 
REMARK    8  A    between atoms: O4_4180  and  C1_4183 
REMARK    9  A    between atoms: C2_4184  and  N2_4191 
REMARK   10  A    between atoms: C3_4185  and  O3_4192 
REMARK   11  A    between atoms: C5_4187  and  C6_4188 
REMARK       I    between atoms: C7_4189  and  N2_4191 
REMARK   12  A    between atoms: O3_4192  and  C1_4197 
REMARK   13  A    between atoms: C5_4201  and  C6_4202 
REMARK   14  A    between atoms: C1_4208  and  C2_4209 
REMARK   15  A    between atoms: C5_4212  and  N5_4219 
REMARK   16  A    between atoms: C6_4213  and  C7_4214 
REMARK   17  A    between atoms: C7_4214  and  C8_4215 
REMARK   18  A    between atoms: C8_4215  and  C9_4216 
REMARK       I    between atoms: C10_4217  and  N5_4219 
ROOT
HETATM    1  C2  BGC B   1      55.125  84.243  78.836  1.00 23.00     0.244 C 
HETATM    2  C3  BGC B   1      56.528  83.951  78.325  1.00 22.71     0.217 C 
HETATM    3  C4  BGC B   1      56.650  82.441  78.053  1.00 19.49     0.181 C 
HETATM    4  C5  BGC B   1      55.559  82.042  77.044  1.00 21.23     0.181 C 
HETATM    5  C1  BGC B   1      54.095  83.759  77.806  1.00 23.10     0.303 C 
HETATM    6  O1  BGC B   1      52.789  83.916  78.358  1.00 30.29    -0.187 OA
HETATM    7  O2  BGC B   1      54.894  85.611  79.136  1.00 24.46    -0.215 OA
HETATM    8  O3  BGC B   1      57.493  84.396  79.258  1.00 20.09    -0.218 OA
HETATM    9  O5  BGC B   1      54.303  82.347  77.661  1.00 23.03    -0.324 OA
ENDROOT
BRANCH   3  10
HETATM   10  O4  BGC B   1      57.937  82.188  77.474  1.00 18.81    -0.326 OA
BRANCH  10  11
HETATM   11  C1  GAL B   2      58.050  82.332  76.065  1.00 18.29     0.270 C 
HETATM   12  C2  GAL B   2      59.165  83.278  75.759  1.00 21.36     0.238 C 
HETATM   13  C3  GAL B   2      59.513  83.307  74.274  1.00 18.89     0.183 C 
HETATM   14  O2  GAL B   2      58.846  84.575  76.229  1.00 21.67    -0.215 OA
HETATM   15  C4  GAL B   2      59.647  81.895  73.698  1.00 18.64     0.177 C 
HETATM   16  C5  GAL B   2      58.401  81.094  74.043  1.00 18.34     0.180 C 
HETATM   17  O5  GAL B   2      58.281  81.054  75.485  1.00 18.97    -0.326 OA
BRANCH  13  18
HETATM   18  O3  GAL B   2      60.738  84.025  74.216  1.00 18.86    -0.324 OA
BRANCH  18  19
HETATM   19  C2  SIA B   5      60.810  85.128  73.326  1.00 20.42     0.271 C 
HETATM   20  C3  SIA B   5      59.480  85.562  72.769  1.00 21.15     0.103 C 
HETATM   21  C4  SIA B   5      59.654  86.736  71.793  1.00 19.84     0.182 C 
HETATM   22  C5  SIA B   5      60.729  86.414  70.738  1.00 19.94     0.166 C 
HETATM   23  O4  SIA B   5      58.412  86.883  71.081  1.00 25.26    -0.221 OA
HETATM   24  C6  SIA B   5      62.003  85.946  71.417  1.00 20.62     0.176 C 
HETATM   25  O6  SIA B   5      61.736  84.804  72.285  1.00 20.84    -0.325 OA
BRANCH  19  26
HETATM   26  C1  SIA B   5      61.415  86.233  74.174  1.00 20.04     0.240 C 
HETATM   27  O1A SIA B   5      60.606  87.042  74.677  1.00 18.86    -0.644 OA
HETATM   28  O1B SIA B   5      62.661  86.296  74.278  1.00 20.53    -0.644 OA
ENDBRANCH  19  26
BRANCH  22  29
HETATM   29  N5  SIA B   5      60.901  87.534  69.836  1.00 20.57    -0.235 NA
HETATM   30  C10 SIA B   5      60.801  87.511  68.491  1.00 24.13     0.252 C 
HETATM   31  C11 SIA B   5      61.012  88.904  67.850  1.00 22.96     0.100 C 
HETATM   32  O10 SIA B   5      60.533  86.457  67.843  1.00 26.68    -0.271 OA
ENDBRANCH  22  29
BRANCH  24  33
HETATM   33  C7  SIA B   5      63.105  85.481  70.474  1.00 19.74     0.214 C 
HETATM   34  O7  SIA B   5      63.305  84.063  70.513  1.00 22.57    -0.218 OA
BRANCH  33  35
HETATM   35  C8  SIA B   5      64.413  86.167  70.961  1.00 19.54     0.218 C 
HETATM   36  O8  SIA B   5      64.071  87.401  71.553  1.00 19.73    -0.218 OA
BRANCH  35  37
HETATM   37  C9  SIA B   5      65.241  86.463  69.724  1.00 20.72     0.218 C 
HETATM   38  O9  SIA B   5      65.156  87.798  69.294  1.00 21.01    -0.218 OA
ENDBRANCH  35  37
ENDBRANCH  33  35
ENDBRANCH  24  33
ENDBRANCH  18  19
ENDBRANCH  13  18
BRANCH  15  39
HETATM   39  O4  GAL B   2      60.787  81.295  74.331  1.00 21.34    -0.327 OA
BRANCH  39  40
HETATM   40  C1  NGA B   3      61.810  80.982  73.374  1.00 19.80     0.262 C 
HETATM   41  C2  NGA B   3      63.164  80.846  74.098  1.00 20.60     0.192 C 
HETATM   42  C3  NGA B   3      64.236  80.380  73.113  1.00 18.92     0.178 C 
HETATM   43  C4  NGA B   3      63.779  79.104  72.410  1.00 18.56     0.211 C 
HETATM   44  C5  NGA B   3      62.393  79.343  71.800  1.00 20.83     0.184 C 
HETATM   45  O4  NGA B   3      63.709  77.997  73.297  1.00 25.94    -0.218 OA
HETATM   46  O5  NGA B   3      61.459  79.683  72.848  1.00 19.30    -0.327 OA
BRANCH  41  47
HETATM   47  N2  NGA B   3      63.413  82.167  74.682  1.00 20.03    -0.232 NA
HETATM   48  C7  NGA B   3      63.816  82.362  75.955  1.00 20.86     0.252 C 
HETATM   49  C8  NGA B   3      63.863  83.839  76.393  1.00 25.36     0.100 C 
HETATM   50  O7  NGA B   3      64.063  81.394  76.700  1.00 33.51    -0.271 OA
ENDBRANCH  41  47
BRANCH  42  51
HETATM   51  O3  NGA B   3      65.486  80.124  73.794  1.00 18.48    -0.327 OA
BRANCH  51  52
HETATM   52  C1  GAL B   4      66.605  80.835  73.295  1.00 17.31     0.270 C 
HETATM   53  C2  GAL B   4      66.794  80.643  71.797  1.00 14.28     0.241 C 
HETATM   54  C3  GAL B   4      67.972  81.452  71.273  1.00 14.14     0.220 C 
HETATM   55  O2  GAL B   4      67.039  79.267  71.521  1.00 16.82    -0.215 OA
HETATM   56  C4  GAL B   4      67.824  82.907  71.689  1.00 13.05     0.215 C 
HETATM   57  O3  GAL B   4      68.079  81.328  69.870  1.00 14.59    -0.218 OA
HETATM   58  C5  GAL B   4      67.524  83.005  73.180  1.00 15.75     0.184 C 
HETATM   59  O4  GAL B   4      66.806  83.515  70.903  1.00 13.46    -0.218 OA
HETATM   60  O5  GAL B   4      66.380  82.230  73.572  1.00 16.29    -0.326 OA
BRANCH  58  61
HETATM   61  C6  GAL B   4      67.317  84.455  73.630  1.00 16.07     0.215 C 
HETATM   62  O6  GAL B   4      65.960  84.805  73.848  1.00 17.63    -0.218 OA
ENDBRANCH  58  61
ENDBRANCH  51  52
ENDBRANCH  42  51
BRANCH  44  63
HETATM   63  C6  NGA B   3      61.870  78.083  71.095  1.00 23.22     0.215 C 
HETATM   64  O6  NGA B   3      62.463  77.998  69.809  1.00 34.06    -0.218 OA
ENDBRANCH  44  63
ENDBRANCH  39  40
ENDBRANCH  15  39
BRANCH  16  65
HETATM   65  C6  GAL B   2      58.358  79.687  73.533  1.00 20.92     0.214 C 
HETATM   66  O6  GAL B   2      57.904  79.626  72.180  1.00 21.47    -0.218 OA
ENDBRANCH  16  65
ENDBRANCH  10  11
ENDBRANCH   3  10
BRANCH   4  67
HETATM   67  C6  BGC B   1      55.560  80.524  76.818  1.00 24.07     0.214 C 
HETATM   68  O6  BGC B   1      54.440  79.935  77.532  1.00 26.88    -0.218 OA
ENDBRANCH   4  67
TORSDOF 18
ENDMDL
MODEL 3
REMARK VINA RESULT:      -7.0      1.586      2.654
REMARK  18 active torsions:
REMARK  status: ('A' for Active; 'I' for Inactive)
REMARK    1  A    between atoms: C4_4162  and  O4_4169 
REMARK    2  A    between atoms: C5_4163  and  C6_4164 
REMARK    3  A    between atoms: O4_4169  and  C1_4172 
REMARK    4  A    between atoms: C3_4174  and  O3_4179 
REMARK    5  A    between atoms: C4_4175  and  O4_4180 
REMARK    6  A    between atoms: C5_4176  and  C6_4177 
REMARK    7  A    between atoms: O3_4179  and  C2_4209 
REMARK    8  A    between atoms: O4_4180  and  C1_4183 
REMARK    9  A    between atoms: C2_4184  and  N2_4191 
REMARK   10  A    between atoms: C3_4185  and  O3_4192 
REMARK   11  A    between atoms: C5_4187  and  C6_4188 
REMARK       I    between atoms: C7_4189  and  N2_4191 
REMARK   12  A    between atoms: O3_4192  and  C1_4197 
REMARK   13  A    between atoms: C5_4201  and  C6_4202 
REMARK   14  A    between atoms: C1_4208  and  C2_4209 
REMARK   15  A    between atoms: C5_4212  and  N5_4219 
REMARK   16  A    between atoms: C6_4213  and  C7_4214 
REMARK   17  A    between atoms: C7_4214  and  C8_4215 
REMARK   18  A    between atoms: C8_4215  and  C9_4216 
REMARK       I    between atoms: C10_4217  and  N5_4219 
ROOT
HETATM    1  C2  BGC B   1      59.419  81.348  71.136  1.00 23.00     0.244 C 
HETATM    2  C3  BGC B   1      60.799  80.849  70.735  1.00 22.71     0.217 C 
HETATM    3  C4  BGC B   1      61.145  79.615  71.586  1.00 19.49     0.181 C 
HETATM    4  C5  BGC B   1      60.050  78.557  71.371  1.00 21.23     0.181 C 
HETATM    5  C1  BGC B   1      58.395  80.218  70.956  1.00 23.10     0.303 C 
HETATM    6  O1  BGC B   1      57.136  80.658  71.463  1.00 30.29    -0.187 OA
HETATM    7  O2  BGC B   1      58.991  82.498  70.425  1.00 24.46    -0.215 OA
HETATM    8  O3  BGC B   1      61.756  81.879  70.888  1.00 20.09    -0.218 OA
HETATM    9  O5  BGC B   1      58.821  79.148  71.810  1.00 23.03    -0.324 OA
ENDROOT
BRANCH   3  10
HETATM   10  O4  BGC B   1      62.399  79.090  71.131  1.00 18.81    -0.326 OA
BRANCH  10  11
HETATM   11  C1  GAL B   2      63.511  79.225  72.006  1.00 18.29     0.270 C 
HETATM   12  C2  GAL B   2      64.619  79.919  71.283  1.00 21.36     0.238 C 
HETATM   13  C3  GAL B   2      65.759  80.321  72.213  1.00 18.89     0.183 C 
HETATM   14  O2  GAL B   2      65.091  79.107  70.224  1.00 21.67    -0.215 OA
HETATM   15  C4  GAL B   2      65.241  81.011  73.477  1.00 18.64     0.177 C 
HETATM   16  C5  GAL B   2      64.173  80.139  74.120  1.00 18.34     0.180 C 
HETATM   17  O5  GAL B   2      63.107  79.956  73.158  1.00 18.97    -0.326 OA
BRANCH  13  18
HETATM   18  O3  GAL B   2      66.565  81.186  71.424  1.00 18.86    -0.324 OA
BRANCH  18  19
HETATM   19  C2  SIA B   5      67.973  81.053  71.536  1.00 20.42     0.271 C 
HETATM   20  C3  SIA B   5      68.422  80.109  72.618  1.00 21.15     0.103 C 
HETATM   21  C4  SIA B   5      69.956  80.050  72.691  1.00 19.84     0.182 C 
HETATM   22  C5  SIA B   5      70.553  81.468  72.774  1.00 19.94     0.166 C 
HETATM   23  O4  SIA B   5      70.297  79.388  73.922  1.00 25.26    -0.221 OA
HETATM   24  C6  SIA B   5      69.992  82.336  71.663  1.00 20.62     0.176 C 
HETATM   25  O6  SIA B   5      68.534  82.358  71.710  1.00 20.84    -0.325 OA
BRANCH  19  26
HETATM   26  C1  SIA B   5      68.393  80.533  70.172  1.00 20.04     0.240 C 
HETATM   27  O1A SIA B   5      68.636  79.310  70.103  1.00 18.86    -0.644 OA
HETATM   28  O1B SIA B   5      68.514  81.350  69.230  1.00 20.53    -0.644 OA
ENDBRANCH  19  26
BRANCH  22  29
HETATM   29  N5  SIA B   5      71.999  81.404  72.821  1.00 20.57    -0.235 NA
HETATM   30  C10 SIA B   5      72.786  81.665  73.885  1.00 24.13     0.252 C 
HETATM   31  C11 SIA B   5      74.290  81.461  73.583  1.00 22.96     0.100 C 
HETATM   32  O10 SIA B   5      72.321  82.011  75.011  1.00 26.68    -0.271 OA
ENDBRANCH  22  29
BRANCH  24  33
HETATM   33  C7  SIA B   5      70.414  83.798  71.710  1.00 19.74     0.214 C 
HETATM   34  O7  SIA B   5      70.006  84.454  72.916  1.00 22.57    -0.218 OA
BRANCH  33  35
HETATM   35  C8  SIA B   5      69.701  84.496  70.517  1.00 19.54     0.218 C 
HETATM   36  O8  SIA B   5      70.619  84.595  69.450  1.00 19.73    -0.218 OA
BRANCH  35  37
HETATM   37  C9  SIA B   5      69.367  85.906  70.969  1.00 20.72     0.218 C 
HETATM   38  O9  SIA B   5      68.660  86.653  70.011  1.00 21.01    -0.218 OA
ENDBRANCH  35  37
ENDBRANCH  33  35
ENDBRANCH  24  33
ENDBRANCH  18  19
ENDBRANCH  13  18
BRANCH  15  39
HETATM   39  O4  GAL B   2      64.652  82.252  73.060  1.00 21.34    -0.327 OA
BRANCH  39  40
HETATM   40  C1  NGA B   3      65.139  83.350  73.846  1.00 19.80     0.262 C 
HETATM   41  C2  NGA B   3      64.082  83.735  74.899  1.00 20.60     0.192 C 
HETATM   42  C3  NGA B   3      64.642  84.810  75.830  1.00 18.92     0.178 C 
HETATM   43  C4  NGA B   3      65.969  84.346  76.426  1.00 18.56     0.211 C 
HETATM   44  C5  NGA B   3      66.901  83.920  75.286  1.00 20.83     0.184 C 
HETATM   45  O4  NGA B   3      65.804  83.255  77.320  1.00 25.94    -0.218 OA
HETATM   46  O5  NGA B   3      66.293  82.838  74.547  1.00 19.30    -0.327 OA
BRANCH  41  47
HETATM   47  N2  NGA B   3      62.912  84.156  74.123  1.00 20.03    -0.232 NA
HETATM   48  C7  NGA B   3      61.641  83.835  74.444  1.00 20.86     0.252 C 
HETATM   49  C8  NGA B   3      60.591  84.257  73.397  1.00 25.36     0.100 C 
HETATM   50  O7  NGA B   3      61.389  83.195  75.483  1.00 33.51    -0.271 OA
ENDBRANCH  41  47
BRANCH  42  51
HETATM   51  O3  NGA B   3      63.715  85.097  76.903  1.00 18.48    -0.327 OA
BRANCH  51  52
HETATM   52  C1  GAL B   4      63.465  86.473  77.136  1.00 17.31     0.270 C 
HETATM   53  C2  GAL B   4      62.143  86.709  77.852  1.00 14.28     0.241 C 
HETATM   54  C3  GAL B   4      61.917  88.187  78.135  1.00 14.14     0.220 C 
HETATM   55  O2  GAL B   4      61.071  86.241  77.038  1.00 16.82    -0.215 OA
HETATM   56  C4  GAL B   4      63.119  88.763  78.867  1.00 13.05     0.215 C 
HETATM   57  O3  GAL B   4      60.727  88.378  78.873  1.00 14.59    -0.218 OA
HETATM   58  C5  GAL B   4      64.408  88.383  78.149  1.00 15.75     0.184 C 
HETATM   59  O4  GAL B   4      63.108  88.302  80.213  1.00 13.46    -0.218 OA
HETATM   60  O5  GAL B   4      64.544  86.967  77.952  1.00 16.29    -0.326 OA
BRANCH  58  61
HETATM   61  C6  GAL B   4      65.649  88.902  78.884  1.00 16.07     0.215 C 
HETATM   62  O6  GAL B   4      66.803  88.096  78.711  1.00 17.63    -0.218 OA
ENDBRANCH  58  61
ENDBRANCH  51  52
ENDBRANCH  42  51
BRANCH  44  63
HETATM   63  C6  NGA B   3      68.249  83.420  75.826  1.00 23.22     0.215 C 
HETATM   64  O6  NGA B   3      68.802  84.417  76.671  1.00 34.06    -0.218 OA
ENDBRANCH  44  63
ENDBRANCH  39  40
ENDBRANCH  15  39
BRANCH  16  65
HETATM   65  C6  GAL B   2      63.571  80.661  75.388  1.00 20.92     0.214 C 
HETATM   66  O6  GAL B   2      64.302  80.232  76.539  1.00 21.47    -0.218 OA
ENDBRANCH  16  65
ENDBRANCH  10  11
ENDBRANCH   3  10
BRANCH   4  67
HETATM   67  C6  BGC B   1      60.283  77.344  72.282  1.00 24.07     0.214 C 
HETATM   68  O6  BGC B   1      59.825  76.143  71.603  1.00 26.88    -0.218 OA
ENDBRANCH   4  67
TORSDOF 18
ENDMDL
MODEL 4
REMARK VINA RESULT:      -6.9      3.913      9.061
REMARK  18 active torsions:
REMARK  status: ('A' for Active; 'I' for Inactive)
REMARK    1  A    between atoms: C4_4162  and  O4_4169 
REMARK    2  A    between atoms: C5_4163  and  C6_4164 
REMARK    3  A    between atoms: O4_4169  and  C1_4172 
REMARK    4  A    between atoms: C3_4174  and  O3_4179 
REMARK    5  A    between atoms: C4_4175  and  O4_4180 
REMARK    6  A    between atoms: C5_4176  and  C6_4177 
REMARK    7  A    between atoms: O3_4179  and  C2_4209 
REMARK    8  A    between atoms: O4_4180  and  C1_4183 
REMARK    9  A    between atoms: C2_4184  and  N2_4191 
REMARK   10  A    between atoms: C3_4185  and  O3_4192 
REMARK   11  A    between atoms: C5_4187  and  C6_4188 
REMARK       I    between atoms: C7_4189  and  N2_4191 
REMARK   12  A    between atoms: O3_4192  and  C1_4197 
REMARK   13  A    between atoms: C5_4201  and  C6_4202 
REMARK   14  A    between atoms: C1_4208  and  C2_4209 
REMARK   15  A    between atoms: C5_4212  and  N5_4219 
REMARK   16  A    between atoms: C6_4213  and  C7_4214 
REMARK   17  A    between atoms: C7_4214  and  C8_4215 
REMARK   18  A    between atoms: C8_4215  and  C9_4216 
REMARK       I    between atoms: C10_4217  and  N5_4219 
ROOT
HETATM    1  C2  BGC B   1      55.309  84.169  78.849  1.00 23.00     0.244 C 
HETATM    2  C3  BGC B   1      56.722  83.958  78.325  1.00 22.71     0.217 C 
HETATM    3  C4  BGC B   1      56.937  82.455  78.076  1.00 19.49     0.181 C 
HETATM    4  C5  BGC B   1      55.863  81.970  77.088  1.00 21.23     0.181 C 
HETATM    5  C1  BGC B   1      54.300  83.601  77.840  1.00 23.10     0.303 C 
HETATM    6  O1  BGC B   1      52.994  83.684  78.406  1.00 30.29    -0.187 OA
HETATM    7  O2  BGC B   1      54.994  85.523  79.131  1.00 24.46    -0.215 OA
HETATM    8  O3  BGC B   1      57.667  84.480  79.239  1.00 20.09    -0.218 OA
HETATM    9  O5  BGC B   1      54.597  82.204  77.716  1.00 23.03    -0.324 OA
ENDROOT
BRANCH   3  10
HETATM   10  O4  BGC B   1      58.231  82.276  77.485  1.00 18.81    -0.326 OA
BRANCH  10  11
HETATM   11  C1  GAL B   2      58.351  82.558  76.097  1.00 18.29     0.270 C 
HETATM   12  C2  GAL B   2      59.507  83.481  75.885  1.00 21.36     0.238 C 
HETATM   13  C3  GAL B   2      59.857  83.646  74.410  1.00 18.89     0.183 C 
HETATM   14  O2  GAL B   2      59.244  84.735  76.487  1.00 21.67    -0.215 OA
HETATM   15  C4  GAL B   2      59.929  82.296  73.691  1.00 18.64     0.177 C 
HETATM   16  C5  GAL B   2      58.648  81.520  73.958  1.00 18.34     0.180 C 
HETATM   17  O5  GAL B   2      58.526  81.337  75.388  1.00 18.97    -0.326 OA
BRANCH  13  18
HETATM   18  O3  GAL B   2      61.111  84.313  74.421  1.00 18.86    -0.324 OA
BRANCH  18  19
HETATM   19  C2  SIA B   5      61.322  85.331  73.455  1.00 20.42     0.271 C 
HETATM   20  C3  SIA B   5      60.057  85.941  72.913  1.00 21.15     0.103 C 
HETATM   21  C4  SIA B   5      60.376  87.008  71.854  1.00 19.84     0.182 C 
HETATM   22  C5  SIA B   5      61.339  86.449  70.790  1.00 19.94     0.166 C 
HETATM   23  O4  SIA B   5      59.144  87.311  71.174  1.00 25.26    -0.221 OA
HETATM   24  C6  SIA B   5      62.549  85.822  71.458  1.00 20.62     0.176 C 
HETATM   25  O6  SIA B   5      62.139  84.796  72.410  1.00 20.84    -0.325 OA
BRANCH  19  26
HETATM   26  C1  SIA B   5      62.132  86.373  74.206  1.00 20.04     0.240 C 
HETATM   27  O1A SIA B   5      63.373  86.296  74.082  1.00 18.86    -0.644 OA
HETATM   28  O1B SIA B   5      61.527  87.199  74.927  1.00 20.53    -0.644 OA
ENDBRANCH  19  26
BRANCH  22  29
HETATM   29  N5  SIA B   5      61.650  87.468  69.807  1.00 20.57    -0.235 NA
HETATM   30  C10 SIA B   5      61.465  87.388  68.474  1.00 24.13     0.252 C 
HETATM   31  C11 SIA B   5      61.879  88.682  67.732  1.00 22.96     0.100 C 
HETATM   32  O10 SIA B   5      60.976  86.364  67.911  1.00 26.68    -0.271 OA
ENDBRANCH  22  29
BRANCH  24  33
HETATM   33  C7  SIA B   5      63.520  85.126  70.514  1.00 19.74     0.214 C 
HETATM   34  O7  SIA B   5      63.356  83.702  70.502  1.00 22.57    -0.218 OA
BRANCH  33  35
HETATM   35  C8  SIA B   5      64.946  85.442  71.046  1.00 19.54     0.218 C 
HETATM   36  O8  SIA B   5      65.719  85.934  69.973  1.00 19.73    -0.218 OA
BRANCH  35  37
HETATM   37  C9  SIA B   5      65.555  84.122  71.484  1.00 20.72     0.218 C 
HETATM   38  O9  SIA B   5      66.833  83.885  70.952  1.00 21.01    -0.218 OA
ENDBRANCH  35  37
ENDBRANCH  33  35
ENDBRANCH  24  33
ENDBRANCH  18  19
ENDBRANCH  13  18
BRANCH  15  39
HETATM   39  O4  GAL B   2      61.041  81.585  74.256  1.00 21.34    -0.327 OA
BRANCH  39  40
HETATM   40  C1  NGA B   3      62.062  81.351  73.273  1.00 19.80     0.262 C 
HETATM   41  C2  NGA B   3      63.421  81.181  73.979  1.00 20.60     0.192 C 
HETATM   42  C3  NGA B   3      64.492  80.796  72.959  1.00 18.92     0.178 C 
HETATM   43  C4  NGA B   3      64.045  79.567  72.171  1.00 18.56     0.211 C 
HETATM   44  C5  NGA B   3      62.653  79.832  71.587  1.00 20.83     0.184 C 
HETATM   45  O4  NGA B   3      63.992  78.401  72.980  1.00 25.94    -0.218 OA
HETATM   46  O5  NGA B   3      61.722  80.088  72.661  1.00 19.30    -0.327 OA
BRANCH  41  47
HETATM   47  N2  NGA B   3      63.659  82.461  74.652  1.00 20.03    -0.232 NA
HETATM   48  C7  NGA B   3      64.032  82.573  75.944  1.00 20.86     0.252 C 
HETATM   49  C8  NGA B   3      64.072  84.019  76.476  1.00 25.36     0.100 C 
HETATM   50  O7  NGA B   3      64.258  81.559  76.632  1.00 33.51    -0.271 OA
ENDBRANCH  41  47
BRANCH  42  51
HETATM   51  O3  NGA B   3      65.749  80.508  73.614  1.00 18.48    -0.327 OA
BRANCH  51  52
HETATM   52  C1  GAL B   4      66.901  81.018  72.966  1.00 17.31     0.270 C 
HETATM   53  C2  GAL B   4      67.840  81.731  73.928  1.00 14.28     0.241 C 
HETATM   54  C3  GAL B   4      69.093  82.229  73.221  1.00 14.14     0.220 C 
HETATM   55  O2  GAL B   4      67.174  82.854  74.499  1.00 16.82    -0.215 OA
HETATM   56  C4  GAL B   4      69.748  81.084  72.463  1.00 13.05     0.215 C 
HETATM   57  O3  GAL B   4      69.990  82.812  74.144  1.00 14.59    -0.218 OA
HETATM   58  C5  GAL B   4      68.716  80.352  71.614  1.00 15.75     0.184 C 
HETATM   59  O4  GAL B   4      70.382  80.214  73.393  1.00 13.46    -0.218 OA
HETATM   60  O5  GAL B   4      67.585  79.897  72.374  1.00 16.29    -0.326 OA
BRANCH  58  61
HETATM   61  C6  GAL B   4      69.327  79.157  70.873  1.00 16.07     0.215 C 
HETATM   62  O6  GAL B   4      70.450  79.486  70.072  1.00 17.63    -0.218 OA
ENDBRANCH  58  61
ENDBRANCH  51  52
ENDBRANCH  42  51
BRANCH  44  63
HETATM   63  C6  NGA B   3      62.139  78.618  70.799  1.00 23.22     0.215 C 
HETATM   64  O6  NGA B   3      62.658  78.675  69.480  1.00 34.06    -0.218 OA
ENDBRANCH  44  63
ENDBRANCH  39  40
ENDBRANCH  15  39
BRANCH  16  65
HETATM   65  C6  GAL B   2      58.544  80.176  73.307  1.00 20.92     0.214 C 
HETATM   66  O6  GAL B   2      57.196  79.702  73.279  1.00 21.47    -0.218 OA
ENDBRANCH  16  65
ENDBRANCH  10  11
ENDBRANCH   3  10
BRANCH   4  67
HETATM   67  C6  BGC B   1      55.959  80.451  76.886  1.00 24.07     0.214 C 
HETATM   68  O6  BGC B   1      54.705  79.837  77.287  1.00 26.88    -0.218 OA
ENDBRANCH   4  67
TORSDOF 18
ENDMDL
MODEL 5
REMARK VINA RESULT:      -6.7      4.038      9.803
REMARK  18 active torsions:
REMARK  status: ('A' for Active; 'I' for Inactive)
REMARK    1  A    between atoms: C4_4162  and  O4_4169 
REMARK    2  A    between atoms: C5_4163  and  C6_4164 
REMARK    3  A    between atoms: O4_4169  and  C1_4172 
REMARK    4  A    between atoms: C3_4174  and  O3_4179 
REMARK    5  A    between atoms: C4_4175  and  O4_4180 
REMARK    6  A    between atoms: C5_4176  and  C6_4177 
REMARK    7  A    between atoms: O3_4179  and  C2_4209 
REMARK    8  A    between atoms: O4_4180  and  C1_4183 
REMARK    9  A    between atoms: C2_4184  and  N2_4191 
REMARK   10  A    between atoms: C3_4185  and  O3_4192 
REMARK   11  A    between atoms: C5_4187  and  C6_4188 
REMARK       I    between atoms: C7_4189  and  N2_4191 
REMARK   12  A    between atoms: O3_4192  and  C1_4197 
REMARK   13  A    between atoms: C5_4201  and  C6_4202 
REMARK   14  A    between atoms: C1_4208  and  C2_4209 
REMARK   15  A    between atoms: C5_4212  and  N5_4219 
REMARK   16  A    between atoms: C6_4213  and  C7_4214 
REMARK   17  A    between atoms: C7_4214  and  C8_4215 
REMARK   18  A    between atoms: C8_4215  and  C9_4216 
REMARK       I    between atoms: C10_4217  and  N5_4219 
ROOT
HETATM    1  C2  BGC B   1      55.159  84.266  78.887  1.00 23.00     0.244 C 
HETATM    2  C3  BGC B   1      56.564  83.973  78.384  1.00 22.71     0.217 C 
HETATM    3  C4  BGC B   1      56.690  82.461  78.125  1.00 19.49     0.181 C 
HETATM    4  C5  BGC B   1      55.605  82.052  77.114  1.00 21.23     0.181 C 
HETATM    5  C1  BGC B   1      54.134  83.772  77.856  1.00 23.10     0.303 C 
HETATM    6  O1  BGC B   1      52.826  83.931  78.401  1.00 30.29    -0.187 OA
HETATM    7  O2  BGC B   1      54.924  85.636  79.175  1.00 24.46    -0.215 OA
HETATM    8  O3  BGC B   1      57.525  84.427  79.319  1.00 20.09    -0.218 OA
HETATM    9  O5  BGC B   1      54.345  82.360  77.723  1.00 23.03    -0.324 OA
ENDROOT
BRANCH   3  10
HETATM   10  O4  BGC B   1      57.981  82.206  77.554  1.00 18.81    -0.326 OA
BRANCH  10  11
HETATM   11  C1  GAL B   2      58.120  82.418  76.155  1.00 18.29     0.270 C 
HETATM   12  C2  GAL B   2      59.300  83.300  75.910  1.00 21.36     0.238 C 
HETATM   13  C3  GAL B   2      59.668  83.384  74.432  1.00 18.89     0.183 C 
HETATM   14  O2  GAL B   2      59.065  84.588  76.448  1.00 21.67    -0.215 OA
HETATM   15  C4  GAL B   2      59.712  81.999  73.781  1.00 18.64     0.177 C 
HETATM   16  C5  GAL B   2      58.410  81.268  74.072  1.00 18.34     0.180 C 
HETATM   17  O5  GAL B   2      58.270  81.159  75.509  1.00 18.97    -0.326 OA
BRANCH  13  18
HETATM   18  O3  GAL B   2      60.938  84.019  74.424  1.00 18.86    -0.324 OA
BRANCH  18  19
HETATM   19  C2  SIA B   5      61.097  85.158  73.593  1.00 20.42     0.271 C 
HETATM   20  C3  SIA B   5      61.639  86.371  74.301  1.00 21.15     0.103 C 
HETATM   21  C4  SIA B   5      61.748  87.563  73.338  1.00 19.84     0.182 C 
HETATM   22  C5  SIA B   5      60.420  87.784  72.591  1.00 19.94     0.166 C 
HETATM   23  O4  SIA B   5      61.968  88.737  74.140  1.00 25.26    -0.221 OA
HETATM   24  C6  SIA B   5      59.953  86.485  71.959  1.00 20.62     0.176 C 
HETATM   25  O6  SIA B   5      59.842  85.433  72.964  1.00 20.84    -0.325 OA
BRANCH  19  26
HETATM   26  C1  SIA B   5      62.071  84.689  72.526  1.00 20.04     0.240 C 
HETATM   27  O1A SIA B   5      61.573  84.064  71.566  1.00 18.86    -0.644 OA
HETATM   28  O1B SIA B   5      63.293  84.909  72.690  1.00 20.53    -0.644 OA
ENDBRANCH  19  26
BRANCH  22  29
HETATM   29  N5  SIA B   5      60.538  88.896  71.670  1.00 20.57    -0.235 NA
HETATM   30  C10 SIA B   5      59.809  90.031  71.676  1.00 24.13     0.252 C 
HETATM   31  C11 SIA B   5      60.232  91.021  70.563  1.00 22.96     0.100 C 
HETATM   32  O10 SIA B   5      58.899  90.256  72.527  1.00 26.68    -0.271 OA
ENDBRANCH  22  29
BRANCH  24  33
HETATM   33  C7  SIA B   5      58.586  86.545  71.292  1.00 19.74     0.214 C 
HETATM   34  O7  SIA B   5      57.531  86.090  72.147  1.00 22.57    -0.218 OA
BRANCH  33  35
HETATM   35  C8  SIA B   5      58.658  85.591  70.066  1.00 19.54     0.218 C 
HETATM   36  O8  SIA B   5      58.023  86.223  68.976  1.00 19.73    -0.218 OA
BRANCH  35  37
HETATM   37  C9  SIA B   5      57.845  84.359  70.420  1.00 20.72     0.218 C 
HETATM   38  O9  SIA B   5      58.581  83.163  70.367  1.00 21.01    -0.218 OA
ENDBRANCH  35  37
ENDBRANCH  33  35
ENDBRANCH  24  33
ENDBRANCH  18  19
ENDBRANCH  13  18
BRANCH  15  39
HETATM   39  O4  GAL B   2      60.800  81.289  74.391  1.00 21.34    -0.327 OA
BRANCH  39  40
HETATM   40  C1  NGA B   3      61.803  80.942  73.423  1.00 19.80     0.262 C 
HETATM   41  C2  NGA B   3      63.166  80.797  74.128  1.00 20.60     0.192 C 
HETATM   42  C3  NGA B   3      64.214  80.296  73.135  1.00 18.92     0.178 C 
HETATM   43  C4  NGA B   3      63.725  79.015  72.462  1.00 18.56     0.211 C 
HETATM   44  C5  NGA B   3      62.334  79.267  71.870  1.00 20.83     0.184 C 
HETATM   45  O4  NGA B   3      63.651  77.926  73.369  1.00 25.94    -0.218 OA
HETATM   46  O5  NGA B   3      61.422  79.641  72.926  1.00 19.30    -0.327 OA
BRANCH  41  47
HETATM   47  N2  NGA B   3      63.446  82.124  74.684  1.00 20.03    -0.232 NA
HETATM   48  C7  NGA B   3      63.856  82.335  75.953  1.00 20.86     0.252 C 
HETATM   49  C8  NGA B   3      63.938  83.820  76.359  1.00 25.36     0.100 C 
HETATM   50  O7  NGA B   3      64.083  81.378  76.717  1.00 33.51    -0.271 OA
ENDBRANCH  41  47
BRANCH  42  51
HETATM   51  O3  NGA B   3      65.470  80.031  73.800  1.00 18.48    -0.327 OA
BRANCH  51  52
HETATM   52  C1  GAL B   4      66.580  80.769  73.318  1.00 17.31     0.270 C 
HETATM   53  C2  GAL B   4      66.761  80.628  71.813  1.00 14.28     0.241 C 
HETATM   54  C3  GAL B   4      67.927  81.466  71.310  1.00 14.14     0.220 C 
HETATM   55  O2  GAL B   4      67.018  79.265  71.491  1.00 16.82    -0.215 OA
HETATM   56  C4  GAL B   4      67.768  82.905  71.775  1.00 13.05     0.215 C 
HETATM   57  O3  GAL B   4      68.027  81.389  69.902  1.00 14.59    -0.218 OA
HETATM   58  C5  GAL B   4      67.476  82.951  73.269  1.00 15.75     0.184 C 
HETATM   59  O4  GAL B   4      66.739  83.528  71.015  1.00 13.46    -0.218 OA
HETATM   60  O5  GAL B   4      66.342  82.152  73.643  1.00 16.29    -0.326 OA
BRANCH  58  61
HETATM   61  C6  GAL B   4      67.258  84.383  73.768  1.00 16.07     0.215 C 
HETATM   62  O6  GAL B   4      67.435  84.542  75.166  1.00 17.63    -0.218 OA
ENDBRANCH  58  61
ENDBRANCH  51  52
ENDBRANCH  42  51
BRANCH  44  63
HETATM   63  C6  NGA B   3      61.778  78.004  71.195  1.00 23.22     0.215 C 
HETATM   64  O6  NGA B   3      62.406  77.844  69.934  1.00 34.06    -0.218 OA
ENDBRANCH  44  63
ENDBRANCH  39  40
ENDBRANCH  15  39
BRANCH  16  65
HETATM   65  C6  GAL B   2      58.278  79.897  73.487  1.00 20.92     0.214 C 
HETATM   66  O6  GAL B   2      57.744  79.934  72.161  1.00 21.47    -0.218 OA
ENDBRANCH  16  65
ENDBRANCH  10  11
ENDBRANCH   3  10
BRANCH   4  67
HETATM   67  C6  BGC B   1      55.610  80.532  76.900  1.00 24.07     0.214 C 
HETATM   68  O6  BGC B   1      54.435  79.958  77.533  1.00 26.88    -0.218 OA
ENDBRANCH   4  67
TORSDOF 18
ENDMDL
MODEL 6
REMARK VINA RESULT:      -6.5      1.817      3.283
REMARK  18 active torsions:
REMARK  status: ('A' for Active; 'I' for Inactive)
REMARK    1  A    between atoms: C4_4162  and  O4_4169 
REMARK    2  A    between atoms: C5_4163  and  C6_4164 
REMARK    3  A    between atoms: O4_4169  and  C1_4172 
REMARK    4  A    between atoms: C3_4174  and  O3_4179 
REMARK    5  A    between atoms: C4_4175  and  O4_4180 
REMARK    6  A    between atoms: C5_4176  and  C6_4177 
REMARK    7  A    between atoms: O3_4179  and  C2_4209 
REMARK    8  A    between atoms: O4_4180  and  C1_4183 
REMARK    9  A    between atoms: C2_4184  and  N2_4191 
REMARK   10  A    between atoms: C3_4185  and  O3_4192 
REMARK   11  A    between atoms: C5_4187  and  C6_4188 
REMARK       I    between atoms: C7_4189  and  N2_4191 
REMARK   12  A    between atoms: O3_4192  and  C1_4197 
REMARK   13  A    between atoms: C5_4201  and  C6_4202 
REMARK   14  A    between atoms: C1_4208  and  C2_4209 
REMARK   15  A    between atoms: C5_4212  and  N5_4219 
REMARK   16  A    between atoms: C6_4213  and  C7_4214 
REMARK   17  A    between atoms: C7_4214  and  C8_4215 
REMARK   18  A    between atoms: C8_4215  and  C9_4216 
REMARK       I    between atoms: C10_4217  and  N5_4219 
ROOT
HETATM    1  C2  BGC B   1      60.093  77.618  71.585  1.00 23.00     0.244 C 
HETATM    2  C3  BGC B   1      61.297  78.480  71.235  1.00 22.71     0.217 C 
HETATM    3  C4  BGC B   1      60.798  79.785  70.588  1.00 19.49     0.181 C 
HETATM    4  C5  BGC B   1      59.844  80.478  71.575  1.00 21.23     0.181 C 
HETATM    5  C1  BGC B   1      59.158  78.402  72.517  1.00 23.10     0.303 C 
HETATM    6  O1  BGC B   1      57.974  77.634  72.726  1.00 30.29    -0.187 OA
HETATM    7  O2  BGC B   1      60.428  76.374  72.180  1.00 24.46    -0.215 OA
HETATM    8  O3  BGC B   1      62.175  77.772  70.380  1.00 20.09    -0.218 OA
HETATM    9  O5  BGC B   1      58.756  79.572  71.793  1.00 23.03    -0.324 OA
ENDROOT
BRANCH   3  10
HETATM   10  O4  BGC B   1      61.930  80.635  70.356  1.00 18.81    -0.326 OA
BRANCH  10  11
HETATM   11  C1  GAL B   2      63.042  80.479  71.228  1.00 18.29     0.270 C 
HETATM   12  C2  GAL B   2      64.237  81.135  70.615  1.00 21.36     0.238 C 
HETATM   13  C3  GAL B   2      65.411  81.227  71.584  1.00 18.89     0.183 C 
HETATM   14  O2  GAL B   2      64.609  80.457  69.430  1.00 21.67    -0.215 OA
HETATM   15  C4  GAL B   2      64.975  81.758  72.952  1.00 18.64     0.177 C 
HETATM   16  C5  GAL B   2      63.798  80.936  73.456  1.00 18.34     0.180 C 
HETATM   17  O5  GAL B   2      62.726  81.054  72.490  1.00 18.97    -0.326 OA
BRANCH  13  18
HETATM   18  O3  GAL B   2      66.328  82.100  70.940  1.00 18.86    -0.324 OA
BRANCH  18  19
HETATM   19  C2  SIA B   5      67.707  81.776  71.018  1.00 20.42     0.271 C 
HETATM   20  C3  SIA B   5      68.044  80.747  72.063  1.00 21.15     0.103 C 
HETATM   21  C4  SIA B   5      69.556  80.480  72.101  1.00 19.84     0.182 C 
HETATM   22  C5  SIA B   5      70.340  81.801  72.210  1.00 19.94     0.166 C 
HETATM   23  O4  SIA B   5      69.827  79.742  73.306  1.00 25.26    -0.221 OA
HETATM   24  C6  SIA B   5      69.883  82.771  71.136  1.00 20.62     0.176 C 
HETATM   25  O6  SIA B   5      68.442  82.987  71.216  1.00 20.84    -0.325 OA
BRANCH  19  26
HETATM   26  C1  SIA B   5      68.028  81.246  69.631  1.00 20.04     0.240 C 
HETATM   27  O1A SIA B   5      68.250  82.107  68.753  1.00 18.86    -0.644 OA
HETATM   28  O1B SIA B   5      68.006  80.008  69.441  1.00 20.53    -0.644 OA
ENDBRANCH  19  26
BRANCH  22  29
HETATM   29  N5  SIA B   5      71.765  81.542  72.224  1.00 20.57    -0.235 NA
HETATM   30  C10 SIA B   5      72.627  81.812  73.227  1.00 24.13     0.252 C 
HETATM   31  C11 SIA B   5      74.075  81.367  72.910  1.00 22.96     0.100 C 
HETATM   32  O10 SIA B   5      72.263  82.347  74.315  1.00 26.68    -0.271 OA
ENDBRANCH  22  29
BRANCH  24  33
HETATM   33  C7  SIA B   5      70.500  84.161  71.215  1.00 19.74     0.214 C 
HETATM   34  O7  SIA B   5      70.014  84.920  72.328  1.00 22.57    -0.218 OA
BRANCH  33  35
HETATM   35  C8  SIA B   5      70.082  84.897  69.910  1.00 19.54     0.218 C 
HETATM   36  O8  SIA B   5      71.242  85.124  69.140  1.00 19.73    -0.218 OA
BRANCH  35  37
HETATM   37  C9  SIA B   5      69.532  86.250  70.325  1.00 20.72     0.218 C 
HETATM   38  O9  SIA B   5      68.492  86.713  69.503  1.00 21.01    -0.218 OA
ENDBRANCH  35  37
ENDBRANCH  33  35
ENDBRANCH  24  33
ENDBRANCH  18  19
ENDBRANCH  13  18
BRANCH  15  39
HETATM   39  O4  GAL B   2      64.554  83.116  72.754  1.00 21.34    -0.327 OA
BRANCH  39  40
HETATM   40  C1  NGA B   3      65.320  84.022  73.564  1.00 19.80     0.262 C 
HETATM   41  C2  NGA B   3      64.472  84.473  74.769  1.00 20.60     0.192 C 
HETATM   42  C3  NGA B   3      65.320  85.328  75.710  1.00 18.92     0.178 C 
HETATM   43  C4  NGA B   3      66.592  84.577  76.095  1.00 18.56     0.211 C 
HETATM   44  C5  NGA B   3      67.301  84.116  74.816  1.00 20.83     0.184 C 
HETATM   45  O4  NGA B   3      66.322  83.444  76.907  1.00 25.94    -0.218 OA
HETATM   46  O5  NGA B   3      66.426  83.243  74.070  1.00 19.30    -0.327 OA
BRANCH  41  47
HETATM   47  N2  NGA B   3      63.326  85.174  74.183  1.00 20.03    -0.232 NA
HETATM   48  C7  NGA B   3      62.055  85.023  74.609  1.00 20.86     0.252 C 
HETATM   49  C8  NGA B   3      61.000  85.740  73.743  1.00 25.36     0.100 C 
HETATM   50  O7  NGA B   3      61.793  84.305  75.593  1.00 33.51    -0.271 OA
ENDBRANCH  41  47
BRANCH  42  51
HETATM   51  O3  NGA B   3      64.584  85.659  76.911  1.00 18.48    -0.327 OA
BRANCH  51  52
HETATM   52  C1  GAL B   4      64.216  87.021  77.041  1.00 17.31     0.270 C 
HETATM   53  C2  GAL B   4      63.724  87.359  78.441  1.00 14.28     0.241 C 
HETATM   54  C3  GAL B   4      63.379  88.835  78.572  1.00 14.14     0.220 C 
HETATM   55  O2  GAL B   4      62.553  86.600  78.729  1.00 16.82    -0.215 OA
HETATM   56  C4  GAL B   4      64.557  89.683  78.117  1.00 13.05     0.215 C 
HETATM   57  O3  GAL B   4      63.006  89.146  79.899  1.00 14.59    -0.218 OA
HETATM   58  C5  GAL B   4      65.062  89.206  76.761  1.00 15.75     0.184 C 
HETATM   59  O4  GAL B   4      65.576  89.632  79.109  1.00 13.46    -0.218 OA
HETATM   60  O5  GAL B   4      65.386  87.807  76.744  1.00 16.29    -0.326 OA
BRANCH  58  61
HETATM   61  C6  GAL B   4      66.283  90.003  76.290  1.00 16.07     0.215 C 
HETATM   62  O6  GAL B   4      67.496  89.269  76.313  1.00 17.63    -0.218 OA
ENDBRANCH  58  61
ENDBRANCH  51  52
ENDBRANCH  42  51
BRANCH  44  63
HETATM   63  C6  NGA B   3      68.582  83.332  75.140  1.00 23.22     0.215 C 
HETATM   64  O6  NGA B   3      69.554  84.233  75.645  1.00 34.06    -0.218 OA
ENDBRANCH  44  63
ENDBRANCH  39  40
ENDBRANCH  15  39
BRANCH  16  65
HETATM   65  C6  GAL B   2      63.257  81.312  74.800  1.00 20.92     0.214 C 
HETATM   66  O6  GAL B   2      64.241  81.172  75.827  1.00 21.47    -0.218 OA
ENDBRANCH  16  65
ENDBRANCH  10  11
ENDBRANCH   3  10
BRANCH   4  67
HETATM   67  C6  BGC B   1      59.227  81.732  70.940  1.00 24.07     0.214 C 
HETATM   68  O6  BGC B   1      59.943  82.906  71.409  1.00 26.88    -0.218 OA
ENDBRANCH   4  67
TORSDOF 18
ENDMDL
MODEL 7
REMARK VINA RESULT:      -6.4      4.233      9.865
REMARK  18 active torsions:
REMARK  status: ('A' for Active; 'I' for Inactive)
REMARK    1  A    between atoms: C4_4162  and  O4_4169 
REMARK    2  A    between atoms: C5_4163  and  C6_4164 
REMARK    3  A    between atoms: O4_4169  and  C1_4172 
REMARK    4  A    between atoms: C3_4174  and  O3_4179 
REMARK    5  A    between atoms: C4_4175  and  O4_4180 
REMARK    6  A    between atoms: C5_4176  and  C6_4177 
REMARK    7  A    between atoms: O3_4179  and  C2_4209 
REMARK    8  A    between atoms: O4_4180  and  C1_4183 
REMARK    9  A    between atoms: C2_4184  and  N2_4191 
REMARK   10  A    between atoms: C3_4185  and  O3_4192 
REMARK   11  A    between atoms: C5_4187  and  C6_4188 
REMARK       I    between atoms: C7_4189  and  N2_4191 
REMARK   12  A    between atoms: O3_4192  and  C1_4197 
REMARK   13  A    between atoms: C5_4201  and  C6_4202 
REMARK   14  A    between atoms: C1_4208  and  C2_4209 
REMARK   15  A    between atoms: C5_4212  and  N5_4219 
REMARK   16  A    between atoms: C6_4213  and  C7_4214 
REMARK   17  A    between atoms: C7_4214  and  C8_4215 
REMARK   18  A    between atoms: C8_4215  and  C9_4216 
REMARK       I    between atoms: C10_4217  and  N5_4219 
ROOT
HETATM    1  C2  BGC B   1      54.752  82.552  77.240  1.00 23.00     0.244 C 
HETATM    2  C3  BGC B   1      55.693  83.610  77.795  1.00 22.71     0.217 C 
HETATM    3  C4  BGC B   1      55.275  84.983  77.240  1.00 19.49     0.181 C 
HETATM    4  C5  BGC B   1      53.809  85.235  77.629  1.00 21.23     0.181 C 
HETATM    5  C1  BGC B   1      53.306  82.908  77.613  1.00 23.10     0.303 C 
HETATM    6  O1  BGC B   1      52.429  81.983  76.972  1.00 30.29    -0.187 OA
HETATM    7  O2  BGC B   1      55.046  81.233  77.673  1.00 24.46    -0.215 OA
HETATM    8  O3  BGC B   1      57.033  83.296  77.467  1.00 20.09    -0.218 OA
HETATM    9  O5  BGC B   1      53.041  84.188  77.024  1.00 23.03    -0.324 OA
ENDROOT
BRANCH   3  10
HETATM   10  O4  BGC B   1      56.100  85.987  77.849  1.00 18.81    -0.326 OA
BRANCH  10  11
HETATM   11  C1  GAL B   2      57.044  86.640  77.011  1.00 18.29     0.270 C 
HETATM   12  C2  GAL B   2      58.423  86.326  77.494  1.00 21.36     0.238 C 
HETATM   13  C3  GAL B   2      59.500  86.785  76.516  1.00 18.89     0.183 C 
HETATM   14  O2  GAL B   2      58.628  86.889  78.776  1.00 21.67    -0.215 OA
HETATM   15  C4  GAL B   2      59.175  86.368  75.080  1.00 18.64     0.177 C 
HETATM   16  C5  GAL B   2      57.766  86.824  74.733  1.00 18.34     0.180 C 
HETATM   17  O5  GAL B   2      56.853  86.205  75.670  1.00 18.97    -0.326 OA
BRANCH  13  18
HETATM   18  O3  GAL B   2      60.689  86.173  76.995  1.00 18.86    -0.324 OA
BRANCH  18  19
HETATM   19  C2  SIA B   5      61.884  86.938  76.953  1.00 20.42     0.271 C 
HETATM   20  C3  SIA B   5      61.742  88.271  76.268  1.00 21.15     0.103 C 
HETATM   21  C4  SIA B   5      63.084  89.016  76.240  1.00 19.84     0.182 C 
HETATM   22  C5  SIA B   5      64.200  88.112  75.683  1.00 19.94     0.166 C 
HETATM   23  O4  SIA B   5      62.943  90.110  75.315  1.00 25.26    -0.221 OA
HETATM   24  C6  SIA B   5      64.214  86.786  76.420  1.00 20.62     0.176 C 
HETATM   25  O6  SIA B   5      62.906  86.141  76.349  1.00 20.84    -0.325 OA
BRANCH  19  26
HETATM   26  C1  SIA B   5      62.235  87.132  78.419  1.00 20.04     0.240 C 
HETATM   27  O1A SIA B   5      62.947  86.244  78.933  1.00 18.86    -0.644 OA
HETATM   28  O1B SIA B   5      61.761  88.121  79.024  1.00 20.53    -0.644 OA
ENDBRANCH  19  26
BRANCH  22  29
HETATM   29  N5  SIA B   5      65.466  88.816  75.679  1.00 20.57    -0.235 NA
HETATM   30  C10 SIA B   5      66.114  89.309  74.604  1.00 24.13     0.252 C 
HETATM   31  C11 SIA B   5      67.429  90.035  74.977  1.00 22.96     0.100 C 
HETATM   32  O10 SIA B   5      65.663  89.204  73.426  1.00 26.68    -0.271 OA
ENDBRANCH  22  29
BRANCH  24  33
HETATM   33  C7  SIA B   5      65.196  85.756  75.879  1.00 19.74     0.214 C 
HETATM   34  O7  SIA B   5      65.533  85.980  74.505  1.00 22.57    -0.218 OA
BRANCH  33  35
HETATM   35  C8  SIA B   5      64.482  84.378  75.981  1.00 19.54     0.218 C 
HETATM   36  O8  SIA B   5      64.808  83.802  77.227  1.00 19.73    -0.218 OA
BRANCH  35  37
HETATM   37  C9  SIA B   5      65.073  83.495  74.898  1.00 20.72     0.218 C 
HETATM   38  O9  SIA B   5      66.213  82.783  75.308  1.00 21.01    -0.218 OA
ENDBRANCH  35  37
ENDBRANCH  33  35
ENDBRANCH  24  33
ENDBRANCH  18  19
ENDBRANCH  13  18
BRANCH  15  39
HETATM   39  O4  GAL B   2      59.232  84.934  75.042  1.00 21.34    -0.327 OA
BRANCH  39  40
HETATM   40  C1  NGA B   3      60.472  84.476  74.481  1.00 19.80     0.262 C 
HETATM   41  C2  NGA B   3      60.203  83.269  73.561  1.00 20.60     0.192 C 
HETATM   42  C3  NGA B   3      61.493  82.858  72.853  1.00 18.92     0.178 C 
HETATM   43  C4  NGA B   3      62.100  84.061  72.134  1.00 18.56     0.211 C 
HETATM   44  C5  NGA B   3      62.245  85.214  73.134  1.00 20.83     0.184 C 
HETATM   45  O4  NGA B   3      61.302  84.494  71.042  1.00 25.94    -0.218 OA
HETATM   46  O5  NGA B   3      60.944  85.563  73.656  1.00 19.30    -0.327 OA
BRANCH  41  47
HETATM   47  N2  NGA B   3      59.643  82.241  74.443  1.00 20.03    -0.232 NA
HETATM   48  C7  NGA B   3      58.470  81.613  74.215  1.00 20.86     0.252 C 
HETATM   49  C8  NGA B   3      58.010  80.684  75.356  1.00 25.36     0.100 C 
HETATM   50  O7  NGA B   3      57.816  81.842  73.180  1.00 33.51    -0.271 OA
ENDBRANCH  41  47
BRANCH  42  51
HETATM   51  O3  NGA B   3      61.241  81.809  71.889  1.00 18.48    -0.327 OA
BRANCH  51  52
HETATM   52  C1  GAL B   4      61.949  80.602  72.108  1.00 17.31     0.270 C 
HETATM   53  C2  GAL B   4      62.724  80.152  70.877  1.00 14.28     0.241 C 
HETATM   54  C3  GAL B   4      63.515  78.880  71.148  1.00 14.14     0.220 C 
HETATM   55  O2  GAL B   4      61.815  79.894  69.811  1.00 16.82    -0.215 OA
HETATM   56  C4  GAL B   4      64.383  79.065  72.383  1.00 13.05     0.215 C 
HETATM   57  O3  GAL B   4      64.293  78.526  70.022  1.00 14.59    -0.218 OA
HETATM   58  C5  GAL B   4      63.557  79.626  73.533  1.00 15.75     0.184 C 
HETATM   59  O4  GAL B   4      65.480  79.911  72.057  1.00 13.46    -0.218 OA
HETATM   60  O5  GAL B   4      62.869  80.840  73.190  1.00 16.29    -0.326 OA
BRANCH  58  61
HETATM   61  C6  GAL B   4      64.407  79.876  74.783  1.00 16.07     0.215 C 
HETATM   62  O6  GAL B   4      64.822  78.692  75.446  1.00 17.63    -0.218 OA
ENDBRANCH  58  61
ENDBRANCH  51  52
ENDBRANCH  42  51
BRANCH  44  63
HETATM   63  C6  NGA B   3      62.833  86.464  72.462  1.00 23.22     0.215 C 
HETATM   64  O6  NGA B   3      62.023  87.582  72.787  1.00 34.06    -0.218 OA
ENDBRANCH  44  63
ENDBRANCH  39  40
ENDBRANCH  15  39
BRANCH  16  65
HETATM   65  C6  GAL B   2      57.294  86.512  73.348  1.00 20.92     0.214 C 
HETATM   66  O6  GAL B   2      57.412  87.641  72.479  1.00 21.47    -0.218 OA
ENDBRANCH  16  65
ENDBRANCH  10  11
ENDBRANCH   3  10
BRANCH   4  67
HETATM   67  C6  BGC B   1      53.301  86.543  77.007  1.00 24.07     0.214 C 
HETATM   68  O6  BGC B   1      52.827  87.421  78.063  1.00 26.88    -0.218 OA
ENDBRANCH   4  67
TORSDOF 18
ENDMDL
MODEL 8
REMARK VINA RESULT:      -6.4      2.071      3.463
REMARK  18 active torsions:
REMARK  status: ('A' for Active; 'I' for Inactive)
REMARK    1  A    between atoms: C4_4162  and  O4_4169 
REMARK    2  A    between atoms: C5_4163  and  C6_4164 
REMARK    3  A    between atoms: O4_4169  and  C1_4172 
REMARK    4  A    between atoms: C3_4174  and  O3_4179 
REMARK    5  A    between atoms: C4_4175  and  O4_4180 
REMARK    6  A    between atoms: C5_4176  and  C6_4177 
REMARK    7  A    between atoms: O3_4179  and  C2_4209 
REMARK    8  A    between atoms: O4_4180  and  C1_4183 
REMARK    9  A    between atoms: C2_4184  and  N2_4191 
REMARK   10  A    between atoms: C3_4185  and  O3_4192 
REMARK   11  A    between atoms: C5_4187  and  C6_4188 
REMARK       I    between atoms: C7_4189  and  N2_4191 
REMARK   12  A    between atoms: O3_4192  and  C1_4197 
REMARK   13  A    between atoms: C5_4201  and  C6_4202 
REMARK   14  A    between atoms: C1_4208  and  C2_4209 
REMARK   15  A    between atoms: C5_4212  and  N5_4219 
REMARK   16  A    between atoms: C6_4213  and  C7_4214 
REMARK   17  A    between atoms: C7_4214  and  C8_4215 
REMARK   18  A    between atoms: C8_4215  and  C9_4216 
REMARK       I    between atoms: C10_4217  and  N5_4219 
ROOT
HETATM    1  C2  BGC B   1      60.446  77.652  71.694  1.00 23.00     0.244 C 
HETATM    2  C3  BGC B   1      61.542  78.675  71.439  1.00 22.71     0.217 C 
HETATM    3  C4  BGC B   1      60.956  79.829  70.606  1.00 19.49     0.181 C 
HETATM    4  C5  BGC B   1      59.764  80.423  71.375  1.00 21.23     0.181 C 
HETATM    5  C1  BGC B   1      59.267  78.334  72.404  1.00 23.10     0.303 C 
HETATM    6  O1  BGC B   1      58.198  77.396  72.514  1.00 30.29    -0.187 OA
HETATM    7  O2  BGC B   1      60.871  76.527  72.447  1.00 24.46    -0.215 OA
HETATM    8  O3  BGC B   1      62.642  78.065  70.790  1.00 20.09    -0.218 OA
HETATM    9  O5  BGC B   1      58.808  79.366  71.521  1.00 23.03    -0.324 OA
ENDROOT
BRANCH   3  10
HETATM   10  O4  BGC B   1      61.966  80.837  70.458  1.00 18.81    -0.326 OA
BRANCH  10  11
HETATM   11  C1  GAL B   2      62.942  80.928  71.487  1.00 18.29     0.270 C 
HETATM   12  C2  GAL B   2      64.043  81.832  71.036  1.00 21.36     0.238 C 
HETATM   13  C3  GAL B   2      65.010  82.177  72.164  1.00 18.89     0.183 C 
HETATM   14  O2  GAL B   2      64.727  81.255  69.940  1.00 21.67    -0.215 OA
HETATM   15  C4  GAL B   2      64.270  82.596  73.436  1.00 18.64     0.177 C 
HETATM   16  C5  GAL B   2      63.239  81.534  73.786  1.00 18.34     0.180 C 
HETATM   17  O5  GAL B   2      62.323  81.416  72.672  1.00 18.97    -0.326 OA
BRANCH  13  18
HETATM   18  O3  GAL B   2      65.802  83.232  71.634  1.00 18.86    -0.324 OA
BRANCH  18  19
HETATM   19  C2  SIA B   5      67.208  83.046  71.605  1.00 20.42     0.271 C 
HETATM   20  C3  SIA B   5      67.920  83.871  70.566  1.00 21.15     0.103 C 
HETATM   21  C4  SIA B   5      69.429  83.585  70.582  1.00 19.84     0.182 C 
HETATM   22  C5  SIA B   5      69.699  82.070  70.509  1.00 19.94     0.166 C 
HETATM   23  O4  SIA B   5      69.982  84.158  69.384  1.00 25.26    -0.221 OA
HETATM   24  C6  SIA B   5      68.893  81.344  71.571  1.00 20.62     0.176 C 
HETATM   25  O6  SIA B   5      67.473  81.650  71.440  1.00 20.84    -0.325 OA
BRANCH  19  26
HETATM   26  C1  SIA B   5      67.651  83.454  72.999  1.00 20.04     0.240 C 
HETATM   27  O1A SIA B   5      67.786  84.680  73.195  1.00 18.86    -0.644 OA
HETATM   28  O1B SIA B   5      67.897  82.556  73.838  1.00 20.53    -0.644 OA
ENDBRANCH  19  26
BRANCH  22  29
HETATM   29  N5  SIA B   5      71.123  81.809  70.545  1.00 20.57    -0.235 NA
HETATM   30  C10 SIA B   5      71.876  81.295  69.551  1.00 24.13     0.252 C 
HETATM   31  C11 SIA B   5      73.374  81.185  69.929  1.00 22.96     0.100 C 
HETATM   32  O10 SIA B   5      71.395  80.971  68.426  1.00 26.68    -0.271 OA
ENDBRANCH  22  29
BRANCH  24  33
HETATM   33  C7  SIA B   5      68.981  79.825  71.523  1.00 19.74     0.214 C 
HETATM   34  O7  SIA B   5      70.232  79.327  72.013  1.00 22.57    -0.218 OA
BRANCH  33  35
HETATM   35  C8  SIA B   5      68.858  79.429  70.025  1.00 19.54     0.218 C 
HETATM   36  O8  SIA B   5      67.513  79.088  69.766  1.00 19.73    -0.218 OA
BRANCH  35  37
HETATM   37  C9  SIA B   5      69.695  78.177  69.830  1.00 20.72     0.218 C 
HETATM   38  O9  SIA B   5      69.921  77.852  68.482  1.00 21.01    -0.218 OA
ENDBRANCH  35  37
ENDBRANCH  33  35
ENDBRANCH  24  33
ENDBRANCH  18  19
ENDBRANCH  13  18
BRANCH  15  39
HETATM   39  O4  GAL B   2      63.598  83.829  73.138  1.00 21.34    -0.327 OA
BRANCH  39  40
HETATM   40  C1  NGA B   3      63.946  84.854  74.082  1.00 19.80     0.262 C 
HETATM   41  C2  NGA B   3      62.722  85.177  74.960  1.00 20.60     0.192 C 
HETATM   42  C3  NGA B   3      63.116  86.166  76.057  1.00 18.92     0.178 C 
HETATM   43  C4  NGA B   3      64.314  85.631  76.837  1.00 18.56     0.211 C 
HETATM   44  C5  NGA B   3      65.430  85.275  75.849  1.00 20.83     0.184 C 
HETATM   45  O4  NGA B   3      63.987  84.478  77.599  1.00 25.94    -0.218 OA
HETATM   46  O5  NGA B   3      64.955  84.266  74.931  1.00 19.30    -0.327 OA
BRANCH  41  47
HETATM   47  N2  NGA B   3      61.710  85.680  74.027  1.00 20.03    -0.232 NA
HETATM   48  C7  NGA B   3      60.386  85.456  74.160  1.00 20.86     0.252 C 
HETATM   49  C8  NGA B   3      59.531  85.950  72.977  1.00 25.36     0.100 C 
HETATM   50  O7  NGA B   3      59.941  84.842  75.149  1.00 33.51    -0.271 OA
ENDBRANCH  41  47
BRANCH  42  51
HETATM   51  O3  NGA B   3      62.017  86.389  76.970  1.00 18.48    -0.327 OA
BRANCH  51  52
HETATM   52  C1  GAL B   4      61.910  87.706  77.481  1.00 17.31     0.270 C 
HETATM   53  C2  GAL B   4      60.488  88.243  77.411  1.00 14.28     0.241 C 
HETATM   54  C3  GAL B   4      60.387  89.639  78.008  1.00 14.14     0.220 C 
HETATM   55  O2  GAL B   4      60.070  88.308  76.050  1.00 16.82    -0.215 OA
HETATM   56  C4  GAL B   4      60.973  89.645  79.411  1.00 13.05     0.215 C 
HETATM   57  O3  GAL B   4      59.046  90.086  78.011  1.00 14.59    -0.218 OA
HETATM   58  C5  GAL B   4      62.348  88.987  79.414  1.00 15.75     0.184 C 
HETATM   59  O4  GAL B   4      60.071  88.989  80.294  1.00 13.46    -0.218 OA
HETATM   60  O5  GAL B   4      62.336  87.663  78.856  1.00 16.29    -0.326 OA
BRANCH  58  61
HETATM   61  C6  GAL B   4      62.952  88.926  80.820  1.00 16.07     0.215 C 
HETATM   62  O6  GAL B   4      64.023  88.005  80.950  1.00 17.63    -0.218 OA
ENDBRANCH  58  61
ENDBRANCH  51  52
ENDBRANCH  42  51
BRANCH  44  63
HETATM   63  C6  NGA B   3      66.659  84.709  76.575  1.00 23.22     0.215 C 
HETATM   64  O6  NGA B   3      66.582  83.292  76.570  1.00 34.06    -0.218 OA
ENDBRANCH  44  63
ENDBRANCH  39  40
ENDBRANCH  15  39
BRANCH  16  65
HETATM   65  C6  GAL B   2      62.434  81.779  75.025  1.00 20.92     0.214 C 
HETATM   66  O6  GAL B   2      61.050  81.977  74.728  1.00 21.47    -0.218 OA
ENDBRANCH  16  65
ENDBRANCH  10  11
ENDBRANCH   3  10
BRANCH   4  67
HETATM   67  C6  BGC B   1      59.068  81.508  70.541  1.00 24.07     0.214 C 
HETATM   68  O6  BGC B   1      59.436  82.815  71.058  1.00 26.88    -0.218 OA
ENDBRANCH   4  67
TORSDOF 18
ENDMDL
MODEL 9
REMARK VINA RESULT:      -6.3      2.372     10.101
REMARK  18 active torsions:
REMARK  status: ('A' for Active; 'I' for Inactive)
REMARK    1  A    between atoms: C4_4162  and  O4_4169 
REMARK    2  A    between atoms: C5_4163  and  C6_4164 
REMARK    3  A    between atoms: O4_4169  and  C1_4172 
REMARK    4  A    between atoms: C3_4174  and  O3_4179 
REMARK    5  A    between atoms: C4_4175  and  O4_4180 
REMARK    6  A    between atoms: C5_4176  and  C6_4177 
REMARK    7  A    between atoms: O3_4179  and  C2_4209 
REMARK    8  A    between atoms: O4_4180  and  C1_4183 
REMARK    9  A    between atoms: C2_4184  and  N2_4191 
REMARK   10  A    between atoms: C3_4185  and  O3_4192 
REMARK   11  A    between atoms: C5_4187  and  C6_4188 
REMARK       I    between atoms: C7_4189  and  N2_4191 
REMARK   12  A    between atoms: O3_4192  and  C1_4197 
REMARK   13  A    between atoms: C5_4201  and  C6_4202 
REMARK   14  A    between atoms: C1_4208  and  C2_4209 
REMARK   15  A    between atoms: C5_4212  and  N5_4219 
REMARK   16  A    between atoms: C6_4213  and  C7_4214 
REMARK   17  A    between atoms: C7_4214  and  C8_4215 
REMARK   18  A    between atoms: C8_4215  and  C9_4216 
REMARK       I    between atoms: C10_4217  and  N5_4219 
ROOT
HETATM    1  C2  BGC B   1      65.603  88.767  78.944  1.00 23.00     0.244 C 
HETATM    2  C3  BGC B   1      65.743  87.914  77.693  1.00 22.71     0.217 C 
HETATM    3  C4  BGC B   1      66.956  88.415  76.888  1.00 19.49     0.181 C 
HETATM    4  C5  BGC B   1      68.198  88.344  77.792  1.00 21.23     0.181 C 
HETATM    5  C1  BGC B   1      66.902  88.698  79.758  1.00 23.10     0.303 C 
HETATM    6  O1  BGC B   1      66.804  89.606  80.854  1.00 30.29    -0.187 OA
HETATM    7  O2  BGC B   1      64.504  88.409  79.767  1.00 24.46    -0.215 OA
HETATM    8  O3  BGC B   1      64.552  87.961  76.931  1.00 20.09    -0.218 OA
HETATM    9  O5  BGC B   1      67.939  89.205  78.907  1.00 23.03    -0.324 OA
ENDROOT
BRANCH   3  10
HETATM   10  O4  BGC B   1      67.144  87.542  75.765  1.00 18.81    -0.326 OA
BRANCH  10  11
HETATM   11  C1  GAL B   2      67.001  86.148  76.002  1.00 18.29     0.270 C 
HETATM   12  C2  GAL B   2      66.389  85.509  74.798  1.00 21.36     0.238 C 
HETATM   13  C3  GAL B   2      66.420  83.986  74.868  1.00 18.89     0.183 C 
HETATM   14  O2  GAL B   2      65.067  85.981  74.616  1.00 21.67    -0.215 OA
HETATM   15  C4  GAL B   2      67.800  83.467  75.281  1.00 18.64     0.177 C 
HETATM   16  C5  GAL B   2      68.237  84.171  76.557  1.00 18.34     0.180 C 
HETATM   17  O5  GAL B   2      68.279  85.593  76.290  1.00 18.97    -0.326 OA
BRANCH  13  18
HETATM   18  O3  GAL B   2      66.063  83.568  73.558  1.00 18.86    -0.324 OA
BRANCH  18  19
HETATM   19  C2  SIA B   5      65.099  82.534  73.439  1.00 20.42     0.271 C 
HETATM   20  C3  SIA B   5      64.514  82.079  74.749  1.00 21.15     0.103 C 
HETATM   21  C4  SIA B   5      63.507  80.940  74.531  1.00 19.84     0.182 C 
HETATM   22  C5  SIA B   5      64.124  79.823  73.668  1.00 19.94     0.166 C 
HETATM   23  O4  SIA B   5      63.236  80.360  75.820  1.00 25.26    -0.221 OA
HETATM   24  C6  SIA B   5      64.718  80.409  72.401  1.00 20.62     0.176 C 
HETATM   25  O6  SIA B   5      65.691  81.449  72.720  1.00 20.84    -0.325 OA
BRANCH  19  26
HETATM   26  C1  SIA B   5      64.020  83.151  72.564  1.00 20.04     0.240 C 
HETATM   27  O1A SIA B   5      63.065  83.685  73.167  1.00 18.86    -0.644 OA
HETATM   28  O1B SIA B   5      64.124  83.049  71.320  1.00 20.53    -0.644 OA
ENDBRANCH  19  26
BRANCH  22  29
HETATM   29  N5  SIA B   5      63.160  78.763  73.451  1.00 20.57    -0.235 NA
HETATM   30  C10 SIA B   5      62.040  78.830  72.702  1.00 24.13     0.252 C 
HETATM   31  C11 SIA B   5      61.262  77.492  72.665  1.00 22.96     0.100 C 
HETATM   32  O10 SIA B   5      61.695  79.877  72.079  1.00 26.68    -0.271 OA
ENDBRANCH  22  29
BRANCH  24  33
HETATM   33  C7  SIA B   5      65.467  79.419  71.520  1.00 19.74     0.214 C 
HETATM   34  O7  SIA B   5      66.890  79.532  71.645  1.00 22.57    -0.218 OA
BRANCH  33  35
HETATM   35  C8  SIA B   5      65.083  79.765  70.053  1.00 19.54     0.218 C 
HETATM   36  O8  SIA B   5      64.072  78.873  69.638  1.00 19.73    -0.218 OA
BRANCH  35  37
HETATM   37  C9  SIA B   5      66.311  79.497  69.202  1.00 20.72     0.218 C 
HETATM   38  O9  SIA B   5      66.885  80.658  68.656  1.00 21.01    -0.218 OA
ENDBRANCH  35  37
ENDBRANCH  33  35
ENDBRANCH  24  33
ENDBRANCH  18  19
ENDBRANCH  13  18
BRANCH  15  39
HETATM   39  O4  GAL B   2      68.705  83.804  74.219  1.00 21.34    -0.327 OA
BRANCH  39  40
HETATM   40  C1  NGA B   3      69.194  82.627  73.558  1.00 19.80     0.262 C 
HETATM   41  C2  NGA B   3      69.669  82.997  72.139  1.00 20.60     0.192 C 
HETATM   42  C3  NGA B   3      70.317  81.784  71.475  1.00 18.92     0.178 C 
HETATM   43  C4  NGA B   3      71.419  81.224  72.370  1.00 18.56     0.211 C 
HETATM   44  C5  NGA B   3      70.842  80.971  73.768  1.00 20.83     0.184 C 
HETATM   45  O4  NGA B   3      72.524  82.110  72.480  1.00 25.94    -0.218 OA
HETATM   46  O5  NGA B   3      70.351  82.214  74.317  1.00 19.30    -0.327 OA
BRANCH  41  47
HETATM   47  N2  NGA B   3      68.470  83.493  71.457  1.00 20.03    -0.232 NA
HETATM   48  C7  NGA B   3      68.316  84.765  71.036  1.00 20.86     0.252 C 
HETATM   49  C8  NGA B   3      66.914  85.093  70.486  1.00 25.36     0.100 C 
HETATM   50  O7  NGA B   3      69.241  85.592  71.156  1.00 33.51    -0.271 OA
ENDBRANCH  41  47
BRANCH  42  51
HETATM   51  O3  NGA B   3      70.883  82.139  70.192  1.00 18.48    -0.327 OA
BRANCH  51  52
HETATM   52  C1  GAL B   4      71.685  81.140  69.586  1.00 17.31     0.270 C 
HETATM   53  C2  GAL B   4      70.856  80.104  68.839  1.00 14.28     0.241 C 
HETATM   54  C3  GAL B   4      71.739  79.069  68.156  1.00 14.14     0.220 C 
HETATM   55  O2  GAL B   4      70.001  79.428  69.756  1.00 16.82    -0.215 OA
HETATM   56  C4  GAL B   4      72.774  79.765  67.287  1.00 13.05     0.215 C 
HETATM   57  O3  GAL B   4      70.957  78.167  67.400  1.00 14.59    -0.218 OA
HETATM   58  C5  GAL B   4      73.477  80.863  68.076  1.00 15.75     0.184 C 
HETATM   59  O4  GAL B   4      72.136  80.276  66.123  1.00 13.46    -0.218 OA
HETATM   60  O5  GAL B   4      72.563  81.806  68.659  1.00 16.29    -0.326 OA
BRANCH  58  61
HETATM   61  C6  GAL B   4      74.494  81.624  67.220  1.00 16.07     0.215 C 
HETATM   62  O6  GAL B   4      73.968  82.778  66.585  1.00 17.63    -0.218 OA
ENDBRANCH  58  61
ENDBRANCH  51  52
ENDBRANCH  42  51
BRANCH  44  63
HETATM   63  C6  NGA B   3      71.913  80.426  74.723  1.00 23.22     0.215 C 
HETATM   64  O6  NGA B   3      71.686  80.959  76.018  1.00 34.06    -0.218 OA
ENDBRANCH  44  63
ENDBRANCH  39  40
ENDBRANCH  15  39
BRANCH  16  65
HETATM   65  C6  GAL B   2      69.565  83.763  77.114  1.00 20.92     0.214 C 
HETATM   66  O6  GAL B   2      69.434  83.120  78.384  1.00 21.47    -0.218 OA
ENDBRANCH  16  65
ENDBRANCH  10  11
ENDBRANCH   3  10
BRANCH   4  67
HETATM   67  C6  BGC B   1      69.421  88.936  77.078  1.00 24.07     0.214 C 
HETATM   68  O6  BGC B   1      70.439  87.908  76.947  1.00 26.88    -0.218 OA
ENDBRANCH   4  67
TORSDOF 18
ENDMDL
