MODEL 1
REMARK VINA RESULT:      -6.6      0.000      0.000
REMARK  15 active torsions:
REMARK  status: ('A' for Active; 'I' for Inactive)
REMARK    1  A    between atoms: C3_3  and  O3_8 
REMARK    2  A    between atoms: C4_4  and  O4_9 
REMARK    3  A    between atoms: C5_5  and  C6_6 
REMARK    4  A    between atoms: O3_8  and  C2_38 
REMARK    5  A    between atoms: O4_9  and  C1_12 
REMARK    6  A    between atoms: C2_13  and  N2_20 
REMARK    7  A    between atoms: C3_14  and  O3_21 
REMARK    8  A    between atoms: C5_16  and  C6_17 
REMARK       I    between atoms: C7_18  and  N2_20 
REMARK    9  A    between atoms: O3_21  and  C1_26 
REMARK   10  A    between atoms: C5_30  and  C6_31 
REMARK   11  A    between atoms: C1_37  and  C2_38 
REMARK   12  A    between atoms: C5_41  and  N5_48 
REMARK   13  A    between atoms: C6_42  and  C7_43 
REMARK   14  A    between atoms: C7_43  and  C8_44 
REMARK   15  A    between atoms: C8_44  and  C9_45 
REMARK       I    between atoms: C10_46  and  N5_48 
ROOT
HETATM    1  C1  GAL A   1      66.276  79.340  68.410  0.50 30.86     0.178 C 
HETATM    2  C2  GAL A   1      65.668  78.820  69.715  0.50 31.03     0.211 C 
HETATM    3  C3  GAL A   1      65.219  79.935  70.638  0.50 28.77     0.181 C 
HETATM    4  C4  GAL A   1      66.309  80.991  70.796  0.50 28.47     0.177 C 
HETATM    5  C5  GAL A   1      66.949  81.361  69.484  0.50 29.35     0.178 C 
HETATM    6  O2  GAL A   1      64.630  77.920  69.374  0.50 30.41    -0.218 OA
HETATM    7  O5  GAL A   1      67.354  80.218  68.739  0.50 30.35    -0.349 OA
ENDROOT
BRANCH   3   8
HETATM    8  O3  GAL A   1      64.992  79.443  71.945  0.50 28.34    -0.324 OA
BRANCH   8   9
HETATM    9  C2  SIA A   4      63.721  79.520  72.555  0.50 28.62     0.271 C 
HETATM   10  O6  SIA A   4      63.022  80.725  72.328  0.50 31.74    -0.325 OA
HETATM   11  C6  SIA A   4      61.744  80.869  72.966  0.50 34.04     0.176 C 
HETATM   12  C5  SIA A   4      60.798  79.725  72.654  0.50 33.06     0.166 C 
HETATM   13  C4  SIA A   4      61.525  78.423  72.994  0.50 31.88     0.182 C 
HETATM   14  C3  SIA A   4      62.802  78.362  72.151  0.50 29.71     0.103 C 
HETATM   15  O4  SIA A   4      60.699  77.321  72.713  0.50 38.09    -0.221 OA
BRANCH   9  16
HETATM   16  C1  SIA A   4      63.975  79.342  74.054  0.50 27.73     0.240 C 
HETATM   17  O1A SIA A   4      63.843  80.326  74.807  0.50 31.28    -0.644 OA
HETATM   18  O1B SIA A   4      64.320  78.189  74.389  0.50 17.68    -0.644 OA
ENDBRANCH   9  16
BRANCH  11  19
HETATM   19  C7  SIA A   4      61.187  82.228  72.543  0.50 33.71     0.214 C 
HETATM   20  O7  SIA A   4      60.930  82.261  71.142  0.50 32.14    -0.218 OA
BRANCH  19  21
HETATM   21  C8  SIA A   4      62.232  83.307  72.851  0.50 34.22     0.218 C 
HETATM   22  O8  SIA A   4      61.780  84.203  73.845  0.50 31.83    -0.218 OA
BRANCH  21  23
HETATM   23  C9  SIA A   4      62.542  84.035  71.548  0.50 33.50     0.218 C 
HETATM   24  O9  SIA A   4      63.894  83.818  71.241  0.50 28.00    -0.218 OA
ENDBRANCH  21  23
ENDBRANCH  19  21
ENDBRANCH  11  19
BRANCH  12  25
HETATM   25  N5  SIA A   4      59.515  79.788  73.313  0.50 34.22    -0.235 NA
HETATM   26  C10 SIA A   4      58.339  79.717  72.688  0.50 33.32     0.252 C 
HETATM   27  C11 SIA A   4      57.129  79.849  73.647  0.50 19.88     0.100 C 
HETATM   28  O10 SIA A   4      58.370  79.593  71.441  0.50 29.43    -0.271 OA
ENDBRANCH  12  25
ENDBRANCH   8   9
ENDBRANCH   3   8
BRANCH   5  29
HETATM   29  C6  GAL A   1      68.202  82.194  69.781  0.50 30.53     0.214 C 
HETATM   30  O6  GAL A   1      69.217  81.885  68.853  0.50 33.07    -0.218 OA
ENDBRANCH   5  29
BRANCH   4  31
HETATM   31  O4  GAL A   1      67.378  80.458  71.559  0.50 31.21    -0.327 OA
BRANCH  31  32
HETATM   32  C1  NGA A   2      67.467  80.954  72.888  0.50 28.26     0.262 C 
HETATM   33  C2  NGA A   2      68.933  81.399  73.001  0.50 24.34     0.192 C 
HETATM   34  C3  NGA A   2      69.146  82.040  74.332  0.50 23.13     0.178 C 
HETATM   35  C4  NGA A   2      68.141  83.169  74.604  0.50 23.45     0.211 C 
HETATM   36  C5  NGA A   2      66.762  82.569  74.461  0.50 23.37     0.184 C 
HETATM   37  O4  NGA A   2      68.381  84.203  73.681  0.50 26.44    -0.218 OA
HETATM   38  O5  NGA A   2      66.593  82.055  73.142  0.50 27.92    -0.327 OA
BRANCH  33  39
HETATM   39  N2  NGA A   2      69.741  80.255  72.645  0.50 23.90    -0.232 NA
HETATM   40  C7  NGA A   2      70.818  80.420  71.860  0.50 22.89     0.252 C 
HETATM   41  C8  NGA A   2      71.533  79.114  71.498  0.50 21.65     0.100 C 
HETATM   42  O7  NGA A   2      71.099  81.584  71.503  0.50 27.34    -0.271 OA
ENDBRANCH  33  39
BRANCH  34  43
HETATM   43  O3  NGA A   2      70.447  82.624  74.377  0.50 19.58    -0.327 OA
BRANCH  43  44
HETATM   44  C1  GAL A   3      70.952  82.442  75.695  0.50 14.41     0.270 C 
HETATM   45  C2  GAL A   3      72.333  81.831  75.592  0.50 11.27     0.241 C 
HETATM   46  O2  GAL A   3      72.247  80.613  74.881  0.50 11.99    -0.215 OA
HETATM   47  C3  GAL A   3      72.911  81.607  76.979  0.50  9.34     0.220 C 
HETATM   48  O3  GAL A   3      74.257  81.198  76.868  0.50 11.52    -0.218 OA
HETATM   49  C4  GAL A   3      72.728  82.839  77.859  0.50 10.13     0.215 C 
HETATM   50  O4  GAL A   3      73.563  83.850  77.361  0.50  7.87    -0.218 OA
HETATM   51  C5  GAL A   3      71.315  83.429  77.792  0.50 13.15     0.184 C 
HETATM   52  O5  GAL A   3      70.960  83.688  76.407  0.50 13.62    -0.326 OA
BRANCH  51  53
HETATM   53  C6  GAL A   3      71.159  84.761  78.517  0.50 18.07     0.215 C 
HETATM   54  O6  GAL A   3      70.511  85.725  77.714  0.50 13.12    -0.218 OA
ENDBRANCH  51  53
ENDBRANCH  43  44
ENDBRANCH  34  43
BRANCH  36  55
HETATM   55  C6  NGA A   2      65.618  83.419  74.951  0.50 20.58     0.215 C 
HETATM   56  O6  NGA A   2      65.290  82.994  76.254  0.50 30.49    -0.218 OA
ENDBRANCH  36  55
ENDBRANCH  31  32
ENDBRANCH   4  31
TORSDOF 15
ENDMDL
MODEL 2
REMARK VINA RESULT:      -6.5      1.604      3.116
REMARK  15 active torsions:
REMARK  status: ('A' for Active; 'I' for Inactive)
REMARK    1  A    between atoms: C3_3  and  O3_8 
REMARK    2  A    between atoms: C4_4  and  O4_9 
REMARK    3  A    between atoms: C5_5  and  C6_6 
REMARK    4  A    between atoms: O3_8  and  C2_38 
REMARK    5  A    between atoms: O4_9  and  C1_12 
REMARK    6  A    between atoms: C2_13  and  N2_20 
REMARK    7  A    between atoms: C3_14  and  O3_21 
REMARK    8  A    between atoms: C5_16  and  C6_17 
REMARK       I    between atoms: C7_18  and  N2_20 
REMARK    9  A    between atoms: O3_21  and  C1_26 
REMARK   10  A    between atoms: C5_30  and  C6_31 
REMARK   11  A    between atoms: C1_37  and  C2_38 
REMARK   12  A    between atoms: C5_41  and  N5_48 
REMARK   13  A    between atoms: C6_42  and  C7_43 
REMARK   14  A    between atoms: C7_43  and  C8_44 
REMARK   15  A    between atoms: C8_44  and  C9_45 
REMARK       I    between atoms: C10_46  and  N5_48 
ROOT
HETATM    1  C1  GAL A   1      66.513  78.970  68.670  0.50 30.86     0.178 C 
HETATM    2  C2  GAL A   1      65.618  79.020  69.910  0.50 31.03     0.211 C 
HETATM    3  C3  GAL A   1      65.238  80.433  70.303  0.50 28.77     0.181 C 
HETATM    4  C4  GAL A   1      66.463  81.342  70.340  0.50 28.47     0.177 C 
HETATM    5  C5  GAL A   1      67.363  81.147  69.149  0.50 29.35     0.178 C 
HETATM    6  O2  GAL A   1      64.501  78.185  69.665  0.50 30.41    -0.218 OA
HETATM    7  O5  GAL A   1      67.666  79.775  68.918  0.50 30.35    -0.349 OA
ENDROOT
BRANCH   3   8
HETATM    8  O3  GAL A   1      64.717  80.465  71.618  0.50 28.34    -0.324 OA
BRANCH   8   9
HETATM    9  C2  SIA A   4      63.347  80.692  71.866  0.50 28.62     0.271 C 
HETATM   10  O6  SIA A   4      62.609  79.547  72.240  0.50 31.74    -0.325 OA
HETATM   11  C6  SIA A   4      61.201  79.719  72.458  0.50 34.04     0.176 C 
HETATM   12  C5  SIA A   4      60.890  80.813  73.463  0.50 33.06     0.166 C 
HETATM   13  C4  SIA A   4      61.611  82.080  73.000  0.50 31.88     0.182 C 
HETATM   14  C3  SIA A   4      63.109  81.770  72.930  0.50 29.71     0.103 C 
HETATM   15  O4  SIA A   4      61.370  83.130  73.902  0.50 38.09    -0.221 OA
BRANCH   9  16
HETATM   16  C1  SIA A   4      62.784  81.267  70.564  0.50 27.73     0.240 C 
HETATM   17  O1A SIA A   4      62.151  80.515  69.798  0.50 31.28    -0.644 OA
HETATM   18  O1B SIA A   4      63.038  82.476  70.378  0.50 17.68    -0.644 OA
ENDBRANCH   9  16
BRANCH  11  19
HETATM   19  C7  SIA A   4      60.647  78.358  72.878  0.50 33.71     0.214 C 
HETATM   20  O7  SIA A   4      61.663  77.360  72.843  0.50 32.14    -0.218 OA
BRANCH  19  21
HETATM   21  C8  SIA A   4      59.553  77.945  71.887  0.50 34.22     0.218 C 
HETATM   22  O8  SIA A   4      58.321  78.572  72.177  0.50 31.83    -0.218 OA
BRANCH  21  23
HETATM   23  C9  SIA A   4      59.427  76.426  71.944  0.50 33.50     0.218 C 
HETATM   24  O9  SIA A   4      59.596  75.928  70.643  0.50 28.00    -0.218 OA
ENDBRANCH  21  23
ENDBRANCH  19  21
ENDBRANCH  11  19
BRANCH  12  25
HETATM   25  N5  SIA A   4      59.486  81.068  73.681  0.50 34.22    -0.235 NA
HETATM   26  C10 SIA A   4      58.935  81.297  74.875  0.50 33.32     0.252 C 
HETATM   27  C11 SIA A   4      57.401  81.503  74.810  0.50 19.88     0.100 C 
HETATM   28  O10 SIA A   4      59.705  81.278  75.864  0.50 29.43    -0.271 OA
ENDBRANCH  12  25
ENDBRANCH   8   9
ENDBRANCH   3   8
BRANCH   5  29
HETATM   29  C6  GAL A   1      68.683  81.879  69.420  0.50 30.53     0.214 C 
HETATM   30  O6  GAL A   1      68.585  83.221  69.001  0.50 33.07    -0.218 OA
ENDBRANCH   5  29
BRANCH   4  31
HETATM   31  O4  GAL A   1      67.279  80.993  71.445  0.50 31.21    -0.327 OA
BRANCH  31  32
HETATM   32  C1  NGA A   2      67.126  81.825  72.587  0.50 28.26     0.262 C 
HETATM   33  C2  NGA A   2      68.573  82.116  73.008  0.50 24.34     0.192 C 
HETATM   34  C3  NGA A   2      68.564  83.073  74.153  0.50 23.13     0.178 C 
HETATM   35  C4  NGA A   2      67.748  84.339  73.850  0.50 23.45     0.211 C 
HETATM   36  C5  NGA A   2      66.362  83.882  73.461  0.50 23.37     0.184 C 
HETATM   37  O4  NGA A   2      68.396  85.042  72.818  0.50 26.44    -0.218 OA
HETATM   38  O5  NGA A   2      66.434  83.044  72.310  0.50 27.92    -0.327 OA
BRANCH  33  39
HETATM   39  N2  NGA A   2      69.220  80.835  73.181  0.50 23.90    -0.232 NA
HETATM   40  C7  NGA A   2      70.433  80.625  72.645  0.50 22.89     0.252 C 
HETATM   41  C8  NGA A   2      70.962  79.200  72.836  0.50 21.65     0.100 C 
HETATM   42  O7  NGA A   2      70.972  81.580  72.046  0.50 27.34    -0.271 OA
ENDBRANCH  33  39
BRANCH  34  43
HETATM   43  O3  NGA A   2      69.898  83.498  74.432  0.50 19.58    -0.327 OA
BRANCH  43  44
HETATM   44  C1  GAL A   3      70.010  83.656  75.842  0.50 14.41     0.270 C 
HETATM   45  C2  GAL A   3      71.223  82.881  76.309  0.50 11.27     0.241 C 
HETATM   46  O2  GAL A   3      71.076  81.526  75.936  0.50 11.99    -0.215 OA
HETATM   47  C3  GAL A   3      71.379  83.011  77.815  0.50  9.34     0.220 C 
HETATM   48  O3  GAL A   3      72.600  82.429  78.214  0.50 11.52    -0.218 OA
HETATM   49  C4  GAL A   3      71.231  84.463  78.261  0.50 10.13     0.215 C 
HETATM   50  O4  GAL A   3      72.347  85.171  77.795  0.50  7.87    -0.218 OA
HETATM   51  C5  GAL A   3      70.026  85.172  77.632  0.50 13.15     0.184 C 
HETATM   52  O5  GAL A   3      70.088  85.047  76.187  0.50 13.62    -0.326 OA
BRANCH  51  53
HETATM   53  C6  GAL A   3      69.962  86.667  77.919  0.50 18.07     0.215 C 
HETATM   54  O6  GAL A   3      68.681  87.200  77.653  0.50 13.12    -0.218 OA
ENDBRANCH  51  53
ENDBRANCH  43  44
ENDBRANCH  34  43
BRANCH  36  55
HETATM   55  C6  NGA A   2      65.309  84.957  73.386  0.50 20.58     0.215 C 
HETATM   56  O6  NGA A   2      64.392  84.741  74.435  0.50 30.49    -0.218 OA
ENDBRANCH  36  55
ENDBRANCH  31  32
ENDBRANCH   4  31
TORSDOF 15
ENDMDL
MODEL 3
REMARK VINA RESULT:      -6.5      3.410      9.383
REMARK  15 active torsions:
REMARK  status: ('A' for Active; 'I' for Inactive)
REMARK    1  A    between atoms: C3_3  and  O3_8 
REMARK    2  A    between atoms: C4_4  and  O4_9 
REMARK    3  A    between atoms: C5_5  and  C6_6 
REMARK    4  A    between atoms: O3_8  and  C2_38 
REMARK    5  A    between atoms: O4_9  and  C1_12 
REMARK    6  A    between atoms: C2_13  and  N2_20 
REMARK    7  A    between atoms: C3_14  and  O3_21 
REMARK    8  A    between atoms: C5_16  and  C6_17 
REMARK       I    between atoms: C7_18  and  N2_20 
REMARK    9  A    between atoms: O3_21  and  C1_26 
REMARK   10  A    between atoms: C5_30  and  C6_31 
REMARK   11  A    between atoms: C1_37  and  C2_38 
REMARK   12  A    between atoms: C5_41  and  N5_48 
REMARK   13  A    between atoms: C6_42  and  C7_43 
REMARK   14  A    between atoms: C7_43  and  C8_44 
REMARK   15  A    between atoms: C8_44  and  C9_45 
REMARK       I    between atoms: C10_46  and  N5_48 
ROOT
HETATM    1  C1  GAL A   1      63.941  78.435  69.745  0.50 30.86     0.178 C 
HETATM    2  C2  GAL A   1      64.509  79.852  69.850  0.50 31.03     0.211 C 
HETATM    3  C3  GAL A   1      64.891  80.228  71.268  0.50 28.77     0.181 C 
HETATM    4  C4  GAL A   1      63.767  79.896  72.246  0.50 28.47     0.177 C 
HETATM    5  C5  GAL A   1      63.171  78.535  72.001  0.50 29.35     0.178 C 
HETATM    6  O2  GAL A   1      65.585  79.952  68.935  0.50 30.41    -0.218 OA
HETATM    7  O5  GAL A   1      62.828  78.333  70.634  0.50 30.35    -0.349 OA
ENDROOT
BRANCH   3   8
HETATM    8  O3  GAL A   1      65.077  81.626  71.384  0.50 28.34    -0.324 OA
BRANCH   8   9
HETATM    9  C2  SIA A   4      66.347  82.184  71.646  0.50 28.62     0.271 C 
HETATM   10  O6  SIA A   4      67.433  81.503  71.054  0.50 31.74    -0.325 OA
HETATM   11  C6  SIA A   4      68.749  82.006  71.330  0.50 34.04     0.176 C 
HETATM   12  C5  SIA A   4      68.897  83.479  71.000  0.50 33.06     0.166 C 
HETATM   13  C4  SIA A   4      67.776  84.227  71.723  0.50 31.88     0.182 C 
HETATM   14  C3  SIA A   4      66.440  83.658  71.237  0.50 29.71     0.103 C 
HETATM   15  O4  SIA A   4      67.853  85.602  71.444  0.50 38.09    -0.221 OA
BRANCH   9  16
HETATM   16  C1  SIA A   4      66.494  82.168  73.169  0.50 27.73     0.240 C 
HETATM   17  O1A SIA A   4      66.891  81.126  73.725  0.50 31.28    -0.644 OA
HETATM   18  O1B SIA A   4      66.175  83.237  73.733  0.50 17.68    -0.644 OA
ENDBRANCH   9  16
BRANCH  11  19
HETATM   19  C7  SIA A   4      69.731  81.127  70.558  0.50 33.71     0.214 C 
HETATM   20  O7  SIA A   4      69.633  81.359  69.156  0.50 32.14    -0.218 OA
BRANCH  19  21
HETATM   21  C8  SIA A   4      69.381  79.656  70.813  0.50 34.22     0.218 C 
HETATM   22  O8  SIA A   4      70.070  79.141  71.934  0.50 31.83    -0.218 OA
BRANCH  21  23
HETATM   23  C9  SIA A   4      69.720  78.874  69.549  0.50 33.50     0.218 C 
HETATM   24  O9  SIA A   4      70.299  77.655  69.934  0.50 28.00    -0.218 OA
ENDBRANCH  21  23
ENDBRANCH  19  21
ENDBRANCH  11  19
BRANCH  12  25
HETATM   25  N5  SIA A   4      70.185  84.054  71.308  0.50 34.22    -0.235 NA
HETATM   26  C10 SIA A   4      70.986  84.639  70.416  0.50 33.32     0.252 C 
HETATM   27  C11 SIA A   4      72.321  85.132  71.026  0.50 19.88     0.100 C 
HETATM   28  O10 SIA A   4      70.578  84.676  69.231  0.50 29.43    -0.271 OA
ENDBRANCH  12  25
ENDBRANCH   8   9
ENDBRANCH   3   8
BRANCH   5  29
HETATM   29  C6  GAL A   1      61.886  78.419  72.828  0.50 30.53     0.214 C 
HETATM   30  O6  GAL A   1      61.367  77.112  72.733  0.50 33.07    -0.218 OA
ENDBRANCH   5  29
BRANCH   4  31
HETATM   31  O4  GAL A   1      62.683  80.786  72.041  0.50 31.21    -0.327 OA
BRANCH  31  32
HETATM   32  C1  NGA A   2      62.555  81.807  73.021  0.50 28.26     0.262 C 
HETATM   33  C2  NGA A   2      61.048  81.829  73.315  0.50 24.34     0.192 C 
HETATM   34  C3  NGA A   2      60.780  82.802  74.414  0.50 23.13     0.178 C 
HETATM   35  C4  NGA A   2      61.641  82.531  75.656  0.50 23.45     0.211 C 
HETATM   36  C5  NGA A   2      63.082  82.549  75.201  0.50 23.37     0.184 C 
HETATM   37  O4  NGA A   2      61.258  81.289  76.195  0.50 26.44    -0.218 OA
HETATM   38  O5  NGA A   2      63.290  81.539  74.217  0.50 27.92    -0.327 OA
BRANCH  33  39
HETATM   39  N2  NGA A   2      60.382  82.015  72.046  0.50 23.90    -0.232 NA
HETATM   40  C7  NGA A   2      59.350  81.224  71.713  0.50 22.89     0.252 C 
HETATM   41  C8  NGA A   2      58.793  81.480  70.310  0.50 21.65     0.100 C 
HETATM   42  O7  NGA A   2      58.981  80.375  72.552  0.50 27.34    -0.271 OA
ENDBRANCH  33  39
BRANCH  34  43
HETATM   43  O3  NGA A   2      59.417  82.695  74.824  0.50 19.58    -0.327 OA
BRANCH  43  44
HETATM   44  C1  GAL A   3      58.997  83.987  75.249  0.50 14.41     0.270 C 
HETATM   45  C2  GAL A   3      58.496  83.876  76.673  0.50 11.27     0.241 C 
HETATM   46  O2  GAL A   3      57.446  82.932  76.720  0.50 11.99    -0.215 OA
HETATM   47  C3  GAL A   3      58.025  85.233  77.168  0.50  9.34     0.220 C 
HETATM   48  O3  GAL A   3      57.721  85.152  78.544  0.50 11.52    -0.218 OA
HETATM   49  C4  GAL A   3      59.040  86.324  76.840  0.50 10.13     0.215 C 
HETATM   50  O4  GAL A   3      60.175  86.107  77.635  0.50  7.87    -0.218 OA
HETATM   51  C5  GAL A   3      59.554  86.261  75.398  0.50 13.15     0.184 C 
HETATM   52  O5  GAL A   3      60.070  84.932  75.122  0.50 13.62    -0.326 OA
BRANCH  51  53
HETATM   53  C6  GAL A   3      60.698  87.222  75.100  0.50 18.07     0.215 C 
HETATM   54  O6  GAL A   3      61.883  86.538  74.748  0.50 13.12    -0.218 OA
ENDBRANCH  51  53
ENDBRANCH  43  44
ENDBRANCH  34  43
BRANCH  36  55
HETATM   55  C6  NGA A   2      64.119  82.581  76.293  0.50 20.58     0.215 C 
HETATM   56  O6  NGA A   2      64.268  81.270  76.789  0.50 30.49    -0.218 OA
ENDBRANCH  36  55
ENDBRANCH  31  32
ENDBRANCH   4  31
TORSDOF 15
ENDMDL
MODEL 4
REMARK VINA RESULT:      -6.1      1.547      2.113
REMARK  15 active torsions:
REMARK  status: ('A' for Active; 'I' for Inactive)
REMARK    1  A    between atoms: C3_3  and  O3_8 
REMARK    2  A    between atoms: C4_4  and  O4_9 
REMARK    3  A    between atoms: C5_5  and  C6_6 
REMARK    4  A    between atoms: O3_8  and  C2_38 
REMARK    5  A    between atoms: O4_9  and  C1_12 
REMARK    6  A    between atoms: C2_13  and  N2_20 
REMARK    7  A    between atoms: C3_14  and  O3_21 
REMARK    8  A    between atoms: C5_16  and  C6_17 
REMARK       I    between atoms: C7_18  and  N2_20 
REMARK    9  A    between atoms: O3_21  and  C1_26 
REMARK   10  A    between atoms: C5_30  and  C6_31 
REMARK   11  A    between atoms: C1_37  and  C2_38 
REMARK   12  A    between atoms: C5_41  and  N5_48 
REMARK   13  A    between atoms: C6_42  and  C7_43 
REMARK   14  A    between atoms: C7_43  and  C8_44 
REMARK   15  A    between atoms: C8_44  and  C9_45 
REMARK       I    between atoms: C10_46  and  N5_48 
ROOT
HETATM    1  C1  GAL A   1      66.230  79.294  68.811  0.50 30.86     0.178 C 
HETATM    2  C2  GAL A   1      65.800  79.058  70.261  0.50 31.03     0.211 C 
HETATM    3  C3  GAL A   1      65.496  80.347  70.999  0.50 28.77     0.181 C 
HETATM    4  C4  GAL A   1      66.611  81.370  70.801  0.50 28.47     0.177 C 
HETATM    5  C5  GAL A   1      67.069  81.456  69.369  0.50 29.35     0.178 C 
HETATM    6  O2  GAL A   1      64.714  78.151  70.244  0.50 30.41    -0.218 OA
HETATM    7  O5  GAL A   1      67.353  80.176  68.815  0.50 30.35    -0.349 OA
ENDROOT
BRANCH   3   8
HETATM    8  O3  GAL A   1      65.445  80.125  72.395  0.50 28.34    -0.324 OA
BRANCH   8   9
HETATM    9  C2  SIA A   4      64.219  80.085  73.094  0.50 28.62     0.271 C 
HETATM   10  O6  SIA A   4      63.895  81.265  73.799  0.50 31.74    -0.325 OA
HETATM   11  C6  SIA A   4      62.680  81.256  74.563  0.50 34.04     0.176 C 
HETATM   12  C5  SIA A   4      61.468  80.867  73.738  0.50 33.06     0.166 C 
HETATM   13  C4  SIA A   4      61.786  79.537  73.053  0.50 31.88     0.182 C 
HETATM   14  C3  SIA A   4      63.033  79.740  72.188  0.50 29.71     0.103 C 
HETATM   15  O4  SIA A   4      60.700  79.130  72.260  0.50 38.09    -0.221 OA
BRANCH   9  16
HETATM   16  C1  SIA A   4      64.344  78.915  74.073  0.50 27.73     0.240 C 
HETATM   17  O1A SIA A   4      64.024  77.773  73.691  0.50 31.28    -0.644 OA
HETATM   18  O1B SIA A   4      64.755  79.231  75.210  0.50 17.68    -0.644 OA
ENDBRANCH   9  16
BRANCH  11  19
HETATM   19  C7  SIA A   4      62.544  82.640  75.196  0.50 33.71     0.214 C 
HETATM   20  O7  SIA A   4      62.235  83.624  74.213  0.50 32.14    -0.218 OA
BRANCH  19  21
HETATM   21  C8  SIA A   4      63.883  83.024  75.835  0.50 34.22     0.218 C 
HETATM   22  O8  SIA A   4      64.218  82.163  76.904  0.50 31.83    -0.218 OA
BRANCH  21  23
HETATM   23  C9  SIA A   4      63.775  84.471  76.303  0.50 33.50     0.218 C 
HETATM   24  O9  SIA A   4      64.513  84.601  77.489  0.50 28.00    -0.218 OA
ENDBRANCH  21  23
ENDBRANCH  19  21
ENDBRANCH  11  19
BRANCH  12  25
HETATM   25  N5  SIA A   4      60.224  80.788  74.467  0.50 34.22    -0.235 NA
HETATM   26  C10 SIA A   4      59.142  81.521  74.200  0.50 33.32     0.252 C 
HETATM   27  C11 SIA A   4      57.966  81.249  75.170  0.50 19.88     0.100 C 
HETATM   28  O10 SIA A   4      59.233  82.334  73.249  0.50 29.43    -0.271 OA
ENDBRANCH  12  25
ENDBRANCH   8   9
ENDBRANCH   3   8
BRANCH   5  29
HETATM   29  C6  GAL A   1      68.360  82.281  69.328  0.50 30.53     0.214 C 
HETATM   30  O6  GAL A   1      69.372  81.560  68.662  0.50 33.07    -0.218 OA
ENDBRANCH   5  29
BRANCH   4  31
HETATM   31  O4  GAL A   1      67.767  80.953  71.506  0.50 31.21    -0.327 OA
BRANCH  31  32
HETATM   32  C1  NGA A   2      68.035  81.679  72.697  0.50 28.26     0.262 C 
HETATM   33  C2  NGA A   2      69.559  81.865  72.663  0.50 24.34     0.192 C 
HETATM   34  C3  NGA A   2      69.973  82.709  73.822  0.50 23.13     0.178 C 
HETATM   35  C4  NGA A   2      69.197  84.032  73.887  0.50 23.45     0.211 C 
HETATM   36  C5  NGA A   2      67.729  83.677  73.921  0.50 23.37     0.184 C 
HETATM   37  O4  NGA A   2      69.543  84.801  72.760  0.50 26.44    -0.218 OA
HETATM   38  O5  NGA A   2      67.382  82.949  72.745  0.50 27.92    -0.327 OA
BRANCH  33  39
HETATM   39  N2  NGA A   2      70.133  80.545  72.526  0.50 23.90    -0.232 NA
HETATM   40  C7  NGA A   2      71.100  80.332  71.620  0.50 22.89     0.252 C 
HETATM   41  C8  NGA A   2      71.558  78.873  71.527  0.50 21.65     0.100 C 
HETATM   42  O7  NGA A   2      71.494  81.313  70.954  0.50 27.34    -0.271 OA
ENDBRANCH  33  39
BRANCH  34  43
HETATM   43  O3  NGA A   2      71.354  83.045  73.699  0.50 19.58    -0.327 OA
BRANCH  43  44
HETATM   44  C1  GAL A   3      72.061  82.321  74.701  0.50 14.41     0.270 C 
HETATM   45  C2  GAL A   3      73.544  82.484  74.443  0.50 11.27     0.241 C 
HETATM   46  O2  GAL A   3      73.839  82.018  73.142  0.50 11.99    -0.215 OA
HETATM   47  C3  GAL A   3      74.342  81.718  75.485  0.50  9.34     0.220 C 
HETATM   48  O3  GAL A   3      75.714  82.013  75.337  0.50 11.52    -0.218 OA
HETATM   49  C4  GAL A   3      73.817  81.989  76.892  0.50 10.13     0.215 C 
HETATM   50  O4  GAL A   3      74.124  83.318  77.215  0.50  7.87    -0.218 OA
HETATM   51  C5  GAL A   3      72.291  81.903  76.997  0.50 13.15     0.184 C 
HETATM   52  O5  GAL A   3      71.683  82.776  76.009  0.50 13.62    -0.326 OA
BRANCH  51  53
HETATM   53  C6  GAL A   3      71.732  82.346  78.344  0.50 18.07     0.215 C 
HETATM   54  O6  GAL A   3      70.447  82.920  78.218  0.50 13.12    -0.218 OA
ENDBRANCH  51  53
ENDBRANCH  43  44
ENDBRANCH  34  43
BRANCH  36  55
HETATM   55  C6  NGA A   2      66.785  84.800  74.262  0.50 20.58     0.215 C 
HETATM   56  O6  NGA A   2      65.734  84.785  73.322  0.50 30.49    -0.218 OA
ENDBRANCH  36  55
ENDBRANCH  31  32
ENDBRANCH   4  31
TORSDOF 15
ENDMDL
MODEL 5
REMARK VINA RESULT:      -6.1      3.213      8.901
REMARK  15 active torsions:
REMARK  status: ('A' for Active; 'I' for Inactive)
REMARK    1  A    between atoms: C3_3  and  O3_8 
REMARK    2  A    between atoms: C4_4  and  O4_9 
REMARK    3  A    between atoms: C5_5  and  C6_6 
REMARK    4  A    between atoms: O3_8  and  C2_38 
REMARK    5  A    between atoms: O4_9  and  C1_12 
REMARK    6  A    between atoms: C2_13  and  N2_20 
REMARK    7  A    between atoms: C3_14  and  O3_21 
REMARK    8  A    between atoms: C5_16  and  C6_17 
REMARK       I    between atoms: C7_18  and  N2_20 
REMARK    9  A    between atoms: O3_21  and  C1_26 
REMARK   10  A    between atoms: C5_30  and  C6_31 
REMARK   11  A    between atoms: C1_37  and  C2_38 
REMARK   12  A    between atoms: C5_41  and  N5_48 
REMARK   13  A    between atoms: C6_42  and  C7_43 
REMARK   14  A    between atoms: C7_43  and  C8_44 
REMARK   15  A    between atoms: C8_44  and  C9_45 
REMARK       I    between atoms: C10_46  and  N5_48 
ROOT
HETATM    1  C1  GAL A   1      64.662  78.690  72.170  0.50 30.86     0.178 C 
HETATM    2  C2  GAL A   1      65.465  79.824  71.530  0.50 31.03     0.211 C 
HETATM    3  C3  GAL A   1      66.304  80.589  72.534  0.50 28.77     0.181 C 
HETATM    4  C4  GAL A   1      65.479  80.976  73.758  0.50 28.47     0.177 C 
HETATM    5  C5  GAL A   1      64.618  79.846  74.256  0.50 29.35     0.178 C 
HETATM    6  O2  GAL A   1      66.224  79.268  70.472  0.50 30.41    -0.218 OA
HETATM    7  O5  GAL A   1      63.859  79.244  73.213  0.50 30.35    -0.349 OA
ENDROOT
BRANCH   3   8
HETATM    8  O3  GAL A   1      66.748  81.815  71.987  0.50 28.34    -0.324 OA
BRANCH   8   9
HETATM    9  C2  SIA A   4      68.121  82.116  71.862  0.50 28.62     0.271 C 
HETATM   10  O6  SIA A   4      68.987  81.003  71.940  0.50 31.74    -0.325 OA
HETATM   11  C6  SIA A   4      70.396  81.265  71.865  0.50 34.04     0.176 C 
HETATM   12  C5  SIA A   4      70.783  82.060  70.633  0.50 33.06     0.166 C 
HETATM   13  C4  SIA A   4      69.910  83.316  70.604  0.50 31.88     0.182 C 
HETATM   14  C3  SIA A   4      68.445  82.871  70.569  0.50 29.71     0.103 C 
HETATM   15  O4  SIA A   4      70.215  84.091  69.472  0.50 38.09    -0.221 OA
BRANCH   9  16
HETATM   16  C1  SIA A   4      68.431  83.094  72.999  0.50 27.73     0.240 C 
HETATM   17  O1A SIA A   4      68.916  82.652  74.057  0.50 31.28    -0.644 OA
HETATM   18  O1B SIA A   4      68.140  84.284  72.753  0.50 17.68    -0.644 OA
ENDBRANCH   9  16
BRANCH  11  19
HETATM   19  C7  SIA A   4      71.103  79.913  71.941  0.50 33.71     0.214 C 
HETATM   20  O7  SIA A   4      70.263  78.869  71.458  0.50 32.14    -0.218 OA
BRANCH  19  21
HETATM   21  C8  SIA A   4      71.429  79.608  73.408  0.50 34.22     0.218 C 
HETATM   22  O8  SIA A   4      70.310  79.085  74.094  0.50 31.83    -0.218 OA
BRANCH  21  23
HETATM   23  C9  SIA A   4      71.919  80.901  74.051  0.50 33.50     0.218 C 
HETATM   24  O9  SIA A   4      71.468  80.922  75.380  0.50 28.00    -0.218 OA
ENDBRANCH  21  23
ENDBRANCH  19  21
ENDBRANCH  11  19
BRANCH  12  25
HETATM   25  N5  SIA A   4      72.182  82.401  70.532  0.50 34.22    -0.235 NA
HETATM   26  C10 SIA A   4      72.986  82.010  69.542  0.50 33.32     0.252 C 
HETATM   27  C11 SIA A   4      74.447  82.496  69.715  0.50 19.88     0.100 C 
HETATM   28  O10 SIA A   4      72.475  81.293  68.649  0.50 29.43    -0.271 OA
ENDBRANCH  12  25
ENDBRANCH   8   9
ENDBRANCH   3   8
BRANCH   5  29
HETATM   29  C6  GAL A   1      63.632  80.412  75.285  0.50 30.53     0.214 C 
HETATM   30  O6  GAL A   1      64.268  80.555  76.534  0.50 33.07    -0.218 OA
ENDBRANCH   5  29
BRANCH   4  31
HETATM   31  O4  GAL A   1      64.548  81.983  73.401  0.50 31.21    -0.327 OA
BRANCH  31  32
HETATM   32  C1  NGA A   2      64.784  83.252  73.995  0.50 28.26     0.262 C 
HETATM   33  C2  NGA A   2      63.406  83.648  74.545  0.50 24.34     0.192 C 
HETATM   34  C3  NGA A   2      63.530  84.934  75.292  0.50 23.13     0.178 C 
HETATM   35  C4  NGA A   2      64.625  84.881  76.367  0.50 23.45     0.211 C 
HETATM   36  C5  NGA A   2      65.905  84.489  75.667  0.50 23.37     0.184 C 
HETATM   37  O4  NGA A   2      64.235  83.950  77.347  0.50 26.44    -0.218 OA
HETATM   38  O5  NGA A   2      65.747  83.213  75.050  0.50 27.92    -0.327 OA
BRANCH  33  39
HETATM   39  N2  NGA A   2      62.482  83.576  73.436  0.50 23.90    -0.232 NA
HETATM   40  C7  NGA A   2      61.301  82.958  73.593  0.50 22.89     0.252 C 
HETATM   41  C8  NGA A   2      60.458  82.887  72.316  0.50 21.65     0.100 C 
HETATM   42  O7  NGA A   2      61.034  82.502  74.725  0.50 27.34    -0.271 OA
ENDBRANCH  33  39
BRANCH  34  43
HETATM   43  O3  NGA A   2      62.303  85.215  75.965  0.50 19.58    -0.327 OA
BRANCH  43  44
HETATM   44  C1  GAL A   3      62.245  86.622  76.177  0.50 14.41     0.270 C 
HETATM   45  C2  GAL A   3      61.873  86.866  77.623  0.50 11.27     0.241 C 
HETATM   46  O2  GAL A   3      60.638  86.236  77.895  0.50 11.99    -0.215 OA
HETATM   47  C3  GAL A   3      61.789  88.359  77.896  0.50  9.34     0.220 C 
HETATM   48  O3  GAL A   3      61.609  88.575  79.279  0.50 11.52    -0.218 OA
HETATM   49  C4  GAL A   3      62.998  89.093  77.325  0.50 10.13     0.215 C 
HETATM   50  O4  GAL A   3      64.120  88.727  78.082  0.50  7.87    -0.218 OA
HETATM   51  C5  GAL A   3      63.339  88.677  75.891  0.50 13.15     0.184 C 
HETATM   52  O5  GAL A   3      63.495  87.234  75.826  0.50 13.62    -0.326 OA
BRANCH  51  53
HETATM   53  C6  GAL A   3      64.645  89.260  75.365  0.50 18.07     0.215 C 
HETATM   54  O6  GAL A   3      65.594  88.254  75.076  0.50 13.12    -0.218 OA
ENDBRANCH  51  53
ENDBRANCH  43  44
ENDBRANCH  34  43
BRANCH  36  55
HETATM   55  C6  NGA A   2      67.171  84.641  76.470  0.50 20.58     0.215 C 
HETATM   56  O6  NGA A   2      67.505  83.378  76.999  0.50 30.49    -0.218 OA
ENDBRANCH  36  55
ENDBRANCH  31  32
ENDBRANCH   4  31
TORSDOF 15
ENDMDL
MODEL 6
REMARK VINA RESULT:      -6.1      3.028      9.487
REMARK  15 active torsions:
REMARK  status: ('A' for Active; 'I' for Inactive)
REMARK    1  A    between atoms: C3_3  and  O3_8 
REMARK    2  A    between atoms: C4_4  and  O4_9 
REMARK    3  A    between atoms: C5_5  and  C6_6 
REMARK    4  A    between atoms: O3_8  and  C2_38 
REMARK    5  A    between atoms: O4_9  and  C1_12 
REMARK    6  A    between atoms: C2_13  and  N2_20 
REMARK    7  A    between atoms: C3_14  and  O3_21 
REMARK    8  A    between atoms: C5_16  and  C6_17 
REMARK       I    between atoms: C7_18  and  N2_20 
REMARK    9  A    between atoms: O3_21  and  C1_26 
REMARK   10  A    between atoms: C5_30  and  C6_31 
REMARK   11  A    between atoms: C1_37  and  C2_38 
REMARK   12  A    between atoms: C5_41  and  N5_48 
REMARK   13  A    between atoms: C6_42  and  C7_43 
REMARK   14  A    between atoms: C7_43  and  C8_44 
REMARK   15  A    between atoms: C8_44  and  C9_45 
REMARK       I    between atoms: C10_46  and  N5_48 
ROOT
HETATM    1  C1  GAL A   1      65.538  78.805  69.632  0.50 30.86     0.178 C 
HETATM    2  C2  GAL A   1      65.829  80.307  69.628  0.50 31.03     0.211 C 
HETATM    3  C3  GAL A   1      66.252  80.827  70.987  0.50 28.77     0.181 C 
HETATM    4  C4  GAL A   1      65.302  80.344  72.080  0.50 28.47     0.177 C 
HETATM    5  C5  GAL A   1      64.961  78.884  71.945  0.50 29.35     0.178 C 
HETATM    6  O2  GAL A   1      66.781  80.557  68.610  0.50 30.41    -0.218 OA
HETATM    7  O5  GAL A   1      64.547  78.545  70.626  0.50 30.35    -0.349 OA
ENDROOT
BRANCH   3   8
HETATM    8  O3  GAL A   1      66.175  82.239  71.031  0.50 28.34    -0.324 OA
BRANCH   8   9
HETATM    9  C2  SIA A   4      67.321  83.037  71.229  0.50 28.62     0.271 C 
HETATM   10  O6  SIA A   4      68.552  82.374  71.032  0.50 31.74    -0.325 OA
HETATM   11  C6  SIA A   4      69.748  83.133  71.268  0.50 34.04     0.176 C 
HETATM   12  C5  SIA A   4      69.792  84.425  70.474  0.50 33.06     0.166 C 
HETATM   13  C4  SIA A   4      68.498  85.187  70.767  0.50 31.88     0.182 C 
HETATM   14  C3  SIA A   4      67.323  84.296  70.356  0.50 29.71     0.103 C 
HETATM   15  O4  SIA A   4      68.475  86.393  70.046  0.50 38.09    -0.221 OA
BRANCH   9  16
HETATM   16  C1  SIA A   4      67.227  83.537  72.673  0.50 27.73     0.240 C 
HETATM   17  O1A SIA A   4      66.614  84.596  72.905  0.50 31.28    -0.644 OA
HETATM   18  O1B SIA A   4      67.812  82.816  73.511  0.50 17.68    -0.644 OA
ENDBRANCH   9  16
BRANCH  11  19
HETATM   19  C7  SIA A   4      70.927  82.211  70.959  0.50 33.71     0.214 C 
HETATM   20  O7  SIA A   4      71.034  81.969  69.560  0.50 32.14    -0.218 OA
BRANCH  19  21
HETATM   21  C8  SIA A   4      70.691  80.862  71.648  0.50 34.22     0.218 C 
HETATM   22  O8  SIA A   4      71.639  80.623  72.668  0.50 31.83    -0.218 OA
BRANCH  21  23
HETATM   23  C9  SIA A   4      70.746  79.779  70.577  0.50 33.50     0.218 C 
HETATM   24  O9  SIA A   4      69.489  79.158  70.522  0.50 28.00    -0.218 OA
ENDBRANCH  21  23
ENDBRANCH  19  21
ENDBRANCH  11  19
BRANCH  12  25
HETATM   25  N5  SIA A   4      70.947  85.257  70.712  0.50 34.22    -0.235 NA
HETATM   26  C10 SIA A   4      71.839  85.598  69.781  0.50 33.32     0.252 C 
HETATM   27  C11 SIA A   4      72.995  86.470  70.332  0.50 19.88     0.100 C 
HETATM   28  O10 SIA A   4      71.646  85.151  68.625  0.50 29.43    -0.271 OA
ENDBRANCH  12  25
ENDBRANCH   8   9
ENDBRANCH   3   8
BRANCH   5  29
HETATM   29  C6  GAL A   1      63.799  78.574  72.896  0.50 30.53     0.214 C 
HETATM   30  O6  GAL A   1      64.252  78.580  74.230  0.50 33.07    -0.218 OA
ENDBRANCH   5  29
BRANCH   4  31
HETATM   31  O4  GAL A   1      64.053  81.000  71.946  0.50 31.21    -0.327 OA
BRANCH  31  32
HETATM   32  C1  NGA A   2      63.757  81.936  72.974  0.50 28.26     0.262 C 
HETATM   33  C2  NGA A   2      62.368  81.499  73.461  0.50 24.34     0.192 C 
HETATM   34  C3  NGA A   2      61.970  82.346  74.623  0.50 23.13     0.178 C 
HETATM   35  C4  NGA A   2      63.033  82.352  75.731  0.50 23.45     0.211 C 
HETATM   36  C5  NGA A   2      64.325  82.807  75.095  0.50 23.37     0.184 C 
HETATM   37  O4  NGA A   2      63.118  81.053  76.266  0.50 26.44    -0.218 OA
HETATM   38  O5  NGA A   2      64.693  81.907  74.053  0.50 27.92    -0.327 OA
BRANCH  33  39
HETATM   39  N2  NGA A   2      61.512  81.472  72.296  0.50 23.90    -0.232 NA
HETATM   40  C7  NGA A   2      60.661  80.449  72.120  0.50 22.89     0.252 C 
HETATM   41  C8  NGA A   2      59.875  80.509  70.807  0.50 21.65     0.100 C 
HETATM   42  O7  NGA A   2      60.620  79.572  73.010  0.50 27.34    -0.271 OA
ENDBRANCH  33  39
BRANCH  34  43
HETATM   43  O3  NGA A   2      60.772  81.830  75.201  0.50 19.58    -0.327 OA
BRANCH  43  44
HETATM   44  C1  GAL A   3      59.813  82.883  75.206  0.50 14.41     0.270 C 
HETATM   45  C2  GAL A   3      58.458  82.285  75.520  0.50 11.27     0.241 C 
HETATM   46  O2  GAL A   3      58.156  81.295  74.558  0.50 11.99    -0.215 OA
HETATM   47  C3  GAL A   3      57.396  83.372  75.527  0.50  9.34     0.220 C 
HETATM   48  O3  GAL A   3      56.175  82.835  75.984  0.50 11.52    -0.218 OA
HETATM   49  C4  GAL A   3      57.855  84.588  76.327  0.50 10.13     0.215 C 
HETATM   50  O4  GAL A   3      57.897  84.220  77.679  0.50  7.87    -0.218 OA
HETATM   51  C5  GAL A   3      59.285  85.028  75.996  0.50 13.15     0.184 C 
HETATM   52  O5  GAL A   3      60.189  83.901  76.145  0.50 13.62    -0.326 OA
BRANCH  51  53
HETATM   53  C6  GAL A   3      59.830  86.121  76.907  0.50 18.07     0.215 C 
HETATM   54  O6  GAL A   3      61.237  86.217  76.833  0.50 13.12    -0.218 OA
ENDBRANCH  51  53
ENDBRANCH  43  44
ENDBRANCH  34  43
BRANCH  36  55
HETATM   55  C6  NGA A   2      65.442  83.155  76.044  0.50 20.58     0.215 C 
HETATM   56  O6  NGA A   2      64.880  83.825  77.149  0.50 30.49    -0.218 OA
ENDBRANCH  36  55
ENDBRANCH  31  32
ENDBRANCH   4  31
TORSDOF 15
ENDMDL
MODEL 7
REMARK VINA RESULT:      -6.0      2.788      8.774
REMARK  15 active torsions:
REMARK  status: ('A' for Active; 'I' for Inactive)
REMARK    1  A    between atoms: C3_3  and  O3_8 
REMARK    2  A    between atoms: C4_4  and  O4_9 
REMARK    3  A    between atoms: C5_5  and  C6_6 
REMARK    4  A    between atoms: O3_8  and  C2_38 
REMARK    5  A    between atoms: O4_9  and  C1_12 
REMARK    6  A    between atoms: C2_13  and  N2_20 
REMARK    7  A    between atoms: C3_14  and  O3_21 
REMARK    8  A    between atoms: C5_16  and  C6_17 
REMARK       I    between atoms: C7_18  and  N2_20 
REMARK    9  A    between atoms: O3_21  and  C1_26 
REMARK   10  A    between atoms: C5_30  and  C6_31 
REMARK   11  A    between atoms: C1_37  and  C2_38 
REMARK   12  A    between atoms: C5_41  and  N5_48 
REMARK   13  A    between atoms: C6_42  and  C7_43 
REMARK   14  A    between atoms: C7_43  and  C8_44 
REMARK   15  A    between atoms: C8_44  and  C9_45 
REMARK       I    between atoms: C10_46  and  N5_48 
ROOT
HETATM    1  C1  GAL A   1      64.530  78.413  70.779  0.50 30.86     0.178 C 
HETATM    2  C2  GAL A   1      65.439  79.560  70.334  0.50 31.03     0.211 C 
HETATM    3  C3  GAL A   1      66.369  80.034  71.433  0.50 28.77     0.181 C 
HETATM    4  C4  GAL A   1      65.607  80.266  72.735  0.50 28.47     0.177 C 
HETATM    5  C5  GAL A   1      64.639  79.154  73.044  0.50 29.35     0.178 C 
HETATM    6  O2  GAL A   1      66.120  79.139  69.166  0.50 30.41    -0.218 OA
HETATM    7  O5  GAL A   1      63.806  78.839  71.934  0.50 30.35    -0.349 OA
ENDROOT
BRANCH   3   8
HETATM    8  O3  GAL A   1      66.932  81.290  71.108  0.50 28.34    -0.324 OA
BRANCH   8   9
HETATM    9  C2  SIA A   4      68.326  81.505  71.132  0.50 28.62     0.271 C 
HETATM   10  O6  SIA A   4      69.001  80.930  72.231  0.50 31.74    -0.325 OA
HETATM   11  C6  SIA A   4      70.415  81.161  72.323  0.50 34.04     0.176 C 
HETATM   12  C5  SIA A   4      71.161  80.757  71.065  0.50 33.06     0.166 C 
HETATM   13  C4  SIA A   4      70.487  81.462  69.886  0.50 31.88     0.182 C 
HETATM   14  C3  SIA A   4      69.020  81.025  69.853  0.50 29.71     0.103 C 
HETATM   15  O4  SIA A   4      71.129  81.116  68.685  0.50 38.09    -0.221 OA
BRANCH   9  16
HETATM   16  C1  SIA A   4      68.506  83.025  71.152  0.50 27.73     0.240 C 
HETATM   17  O1A SIA A   4      68.614  83.603  72.251  0.50 31.28    -0.644 OA
HETATM   18  O1B SIA A   4      68.510  83.563  70.024  0.50 17.68    -0.644 OA
ENDBRANCH   9  16
BRANCH  11  19
HETATM   19  C7  SIA A   4      70.906  80.416  73.564  0.50 33.71     0.214 C 
HETATM   20  O7  SIA A   4      69.974  79.415  73.962  0.50 32.14    -0.218 OA
BRANCH  19  21
HETATM   21  C8  SIA A   4      71.038  81.416  74.718  0.50 34.22     0.218 C 
HETATM   22  O8  SIA A   4      71.103  82.748  74.252  0.50 31.83    -0.218 OA
BRANCH  21  23
HETATM   23  C9  SIA A   4      72.286  81.046  75.511  0.50 33.50     0.218 C 
HETATM   24  O9  SIA A   4      73.204  80.459  74.626  0.50 28.00    -0.218 OA
ENDBRANCH  21  23
ENDBRANCH  19  21
ENDBRANCH  11  19
BRANCH  12  25
HETATM   25  N5  SIA A   4      72.581  81.018  71.080  0.50 34.22    -0.235 NA
HETATM   26  C10 SIA A   4      73.523  80.079  70.986  0.50 33.32     0.252 C 
HETATM   27  C11 SIA A   4      74.962  80.648  71.066  0.50 19.88     0.100 C 
HETATM   28  O10 SIA A   4      73.129  78.892  70.887  0.50 29.43    -0.271 OA
ENDBRANCH  12  25
ENDBRANCH   8   9
ENDBRANCH   3   8
BRANCH   5  29
HETATM   29  C6  GAL A   1      63.734  79.613  74.193  0.50 30.53     0.214 C 
HETATM   30  O6  GAL A   1      64.452  79.605  75.406  0.50 33.07    -0.218 OA
ENDBRANCH   5  29
BRANCH   4  31
HETATM   31  O4  GAL A   1      64.782  81.410  72.604  0.50 31.21    -0.327 OA
BRANCH  31  32
HETATM   32  C1  NGA A   2      65.183  82.528  73.385  0.50 28.26     0.262 C 
HETATM   33  C2  NGA A   2      63.902  82.908  74.141  0.50 24.34     0.192 C 
HETATM   34  C3  NGA A   2      64.206  84.022  75.087  0.50 23.13     0.178 C 
HETATM   35  C4  NGA A   2      65.388  83.695  76.011  0.50 23.45     0.211 C 
HETATM   36  C5  NGA A   2      66.558  83.352  75.120  0.50 23.37     0.184 C 
HETATM   37  O4  NGA A   2      65.010  82.627  76.847  0.50 26.44    -0.218 OA
HETATM   38  O5  NGA A   2      66.232  82.227  74.307  0.50 27.92    -0.327 OA
BRANCH  33  39
HETATM   39  N2  NGA A   2      62.876  83.108  73.142  0.50 23.90    -0.232 NA
HETATM   40  C7  NGA A   2      61.653  82.589  73.331  0.50 22.89     0.252 C 
HETATM   41  C8  NGA A   2      60.692  82.809  72.158  0.50 21.65     0.100 C 
HETATM   42  O7  NGA A   2      61.444  81.981  74.403  0.50 27.34    -0.271 OA
ENDBRANCH  33  39
BRANCH  34  43
HETATM   43  O3  NGA A   2      63.076  84.257  75.926  0.50 19.58    -0.327 OA
BRANCH  43  44
HETATM   44  C1  GAL A   3      62.980  85.663  76.128  0.50 14.41     0.270 C 
HETATM   45  C2  GAL A   3      61.538  86.073  75.917  0.50 11.27     0.241 C 
HETATM   46  O2  GAL A   3      61.136  85.693  74.617  0.50 11.99    -0.215 OA
HETATM   47  C3  GAL A   3      61.387  87.572  76.112  0.50  9.34     0.220 C 
HETATM   48  O3  GAL A   3      60.019  87.916  76.080  0.50 11.52    -0.218 OA
HETATM   49  C4  GAL A   3      62.095  88.038  77.381  0.50 10.13     0.215 C 
HETATM   50  O4  GAL A   3      61.383  87.533  78.479  0.50  7.87    -0.218 OA
HETATM   51  C5  GAL A   3      63.508  87.466  77.533  0.50 13.15     0.184 C 
HETATM   52  O5  GAL A   3      63.461  86.018  77.433  0.50 13.62    -0.326 OA
BRANCH  51  53
HETATM   53  C6  GAL A   3      64.164  87.769  78.875  0.50 18.07     0.215 C 
HETATM   54  O6  GAL A   3      65.317  88.572  78.729  0.50 13.12    -0.218 OA
ENDBRANCH  51  53
ENDBRANCH  43  44
ENDBRANCH  34  43
BRANCH  36  55
HETATM   55  C6  NGA A   2      67.901  83.265  75.797  0.50 20.58     0.215 C 
HETATM   56  O6  NGA A   2      67.731  83.634  77.147  0.50 30.49    -0.218 OA
ENDBRANCH  36  55
ENDBRANCH  31  32
ENDBRANCH   4  31
TORSDOF 15
ENDMDL
MODEL 8
REMARK VINA RESULT:      -5.9      3.258      8.932
REMARK  15 active torsions:
REMARK  status: ('A' for Active; 'I' for Inactive)
REMARK    1  A    between atoms: C3_3  and  O3_8 
REMARK    2  A    between atoms: C4_4  and  O4_9 
REMARK    3  A    between atoms: C5_5  and  C6_6 
REMARK    4  A    between atoms: O3_8  and  C2_38 
REMARK    5  A    between atoms: O4_9  and  C1_12 
REMARK    6  A    between atoms: C2_13  and  N2_20 
REMARK    7  A    between atoms: C3_14  and  O3_21 
REMARK    8  A    between atoms: C5_16  and  C6_17 
REMARK       I    between atoms: C7_18  and  N2_20 
REMARK    9  A    between atoms: O3_21  and  C1_26 
REMARK   10  A    between atoms: C5_30  and  C6_31 
REMARK   11  A    between atoms: C1_37  and  C2_38 
REMARK   12  A    between atoms: C5_41  and  N5_48 
REMARK   13  A    between atoms: C6_42  and  C7_43 
REMARK   14  A    between atoms: C7_43  and  C8_44 
REMARK   15  A    between atoms: C8_44  and  C9_45 
REMARK       I    between atoms: C10_46  and  N5_48 
ROOT
HETATM    1  C1  GAL A   1      69.612  81.465  70.088  0.50 30.86     0.178 C 
HETATM    2  C2  GAL A   1      68.374  82.352  69.937  0.50 31.03     0.211 C 
HETATM    3  C3  GAL A   1      68.018  83.086  71.214  0.50 28.77     0.181 C 
HETATM    4  C4  GAL A   1      68.003  82.135  72.408  0.50 28.47     0.177 C 
HETATM    5  C5  GAL A   1      69.188  81.206  72.421  0.50 29.35     0.178 C 
HETATM    6  O2  GAL A   1      68.599  83.216  68.837  0.50 30.41    -0.218 OA
HETATM    7  O5  GAL A   1      69.382  80.559  71.168  0.50 30.35    -0.349 OA
ENDROOT
BRANCH   3   8
HETATM    8  O3  GAL A   1      66.705  83.607  71.144  0.50 28.34    -0.324 OA
BRANCH   8   9
HETATM    9  C2  SIA A   4      66.439  84.975  71.371  0.50 28.62     0.271 C 
HETATM   10  O6  SIA A   4      67.074  85.527  72.505  0.50 31.74    -0.325 OA
HETATM   11  C6  SIA A   4      66.796  86.903  72.803  0.50 34.04     0.176 C 
HETATM   12  C5  SIA A   4      67.068  87.827  71.631  0.50 33.06     0.166 C 
HETATM   13  C4  SIA A   4      66.298  87.280  70.428  0.50 31.88     0.182 C 
HETATM   14  C3  SIA A   4      66.788  85.853  70.165  0.50 29.71     0.103 C 
HETATM   15  O4  SIA A   4      66.521  88.090  69.302  0.50 38.09    -0.221 OA
BRANCH   9  16
HETATM   16  C1  SIA A   4      64.919  85.075  71.528  0.50 27.73     0.240 C 
HETATM   17  O1A SIA A   4      64.430  85.050  72.674  0.50 31.28    -0.644 OA
HETATM   18  O1B SIA A   4      64.290  85.159  70.452  0.50 17.68    -0.644 OA
ENDBRANCH   9  16
BRANCH  11  19
HETATM   19  C7  SIA A   4      67.618  87.263  74.040  0.50 33.71     0.214 C 
HETATM   20  O7  SIA A   4      69.013  87.228  73.756  0.50 32.14    -0.218 OA
BRANCH  19  21
HETATM   21  C8  SIA A   4      67.339  86.227  75.136  0.50 34.22     0.218 C 
HETATM   22  O8  SIA A   4      66.412  86.708  76.086  0.50 31.83    -0.218 OA
BRANCH  21  23
HETATM   23  C9  SIA A   4      68.671  85.877  75.790  0.50 33.50     0.218 C 
HETATM   24  O9  SIA A   4      68.520  86.009  77.179  0.50 28.00    -0.218 OA
ENDBRANCH  21  23
ENDBRANCH  19  21
ENDBRANCH  11  19
BRANCH  12  25
HETATM   25  N5  SIA A   4      66.754  89.218  71.856  0.50 34.22    -0.235 NA
HETATM   26  C10 SIA A   4      67.641  90.212  71.797  0.50 33.32     0.252 C 
HETATM   27  C11 SIA A   4      67.027  91.598  72.119  0.50 19.88     0.100 C 
HETATM   28  O10 SIA A   4      68.826  89.897  71.534  0.50 29.43    -0.271 OA
ENDBRANCH  12  25
ENDBRANCH   8   9
ENDBRANCH   3   8
BRANCH   5  29
HETATM   29  C6  GAL A   1      68.933  80.120  73.474  0.50 30.53     0.214 C 
HETATM   30  O6  GAL A   1      70.132  79.439  73.763  0.50 33.07    -0.218 OA
ENDBRANCH   5  29
BRANCH   4  31
HETATM   31  O4  GAL A   1      66.888  81.266  72.307  0.50 31.21    -0.327 OA
BRANCH  31  32
HETATM   32  C1  NGA A   2      65.722  81.709  72.986  0.50 28.26     0.262 C 
HETATM   33  C2  NGA A   2      64.777  80.502  72.892  0.50 24.34     0.192 C 
HETATM   34  C3  NGA A   2      63.532  80.797  73.661  0.50 23.13     0.178 C 
HETATM   35  C4  NGA A   2      63.826  81.233  75.103  0.50 23.45     0.211 C 
HETATM   36  C5  NGA A   2      64.754  82.422  75.020  0.50 23.37     0.184 C 
HETATM   37  O4  NGA A   2      64.401  80.143  75.783  0.50 26.44    -0.218 OA
HETATM   38  O5  NGA A   2      65.958  82.050  74.354  0.50 27.92    -0.327 OA
BRANCH  33  39
HETATM   39  N2  NGA A   2      64.665  80.173  71.489  0.50 23.90    -0.232 NA
HETATM   40  C7  NGA A   2      64.870  78.910  71.084  0.50 22.89     0.252 C 
HETATM   41  C8  NGA A   2      64.799  78.722  69.565  0.50 21.65     0.100 C 
HETATM   42  O7  NGA A   2      65.113  78.055  71.962  0.50 27.34    -0.271 OA
ENDBRANCH  33  39
BRANCH  34  43
HETATM   43  O3  NGA A   2      62.730  79.619  73.739  0.50 19.58    -0.327 OA
BRANCH  43  44
HETATM   44  C1  GAL A   3      61.761  79.693  72.700  0.50 14.41     0.270 C 
HETATM   45  C2  GAL A   3      60.849  78.490  72.818  0.50 11.27     0.241 C 
HETATM   46  O2  GAL A   3      61.626  77.313  72.738  0.50 11.99    -0.215 OA
HETATM   47  C3  GAL A   3      59.800  78.519  71.720  0.50  9.34     0.220 C 
HETATM   48  O3  GAL A   3      58.859  77.492  71.940  0.50 11.52    -0.218 OA
HETATM   49  C4  GAL A   3      59.164  79.901  71.600  0.50 10.13     0.215 C 
HETATM   50  O4  GAL A   3      58.385  80.116  72.746  0.50  7.87    -0.218 OA
HETATM   51  C5  GAL A   3      60.186  81.042  71.602  0.50 13.15     0.184 C 
HETATM   52  O5  GAL A   3      61.039  80.931  72.773  0.50 13.62    -0.326 OA
BRANCH  51  53
HETATM   53  C6  GAL A   3      59.569  82.434  71.667  0.50 18.07     0.215 C 
HETATM   54  O6  GAL A   3      58.877  82.760  70.480  0.50 13.12    -0.218 OA
ENDBRANCH  51  53
ENDBRANCH  43  44
ENDBRANCH  34  43
BRANCH  36  55
HETATM   55  C6  NGA A   2      64.960  83.190  76.299  0.50 20.58     0.215 C 
HETATM   56  O6  NGA A   2      66.342  83.219  76.571  0.50 30.49    -0.218 OA
ENDBRANCH  36  55
ENDBRANCH  31  32
ENDBRANCH   4  31
TORSDOF 15
ENDMDL
MODEL 9
REMARK VINA RESULT:      -5.9      4.079      7.578
REMARK  15 active torsions:
REMARK  status: ('A' for Active; 'I' for Inactive)
REMARK    1  A    between atoms: C3_3  and  O3_8 
REMARK    2  A    between atoms: C4_4  and  O4_9 
REMARK    3  A    between atoms: C5_5  and  C6_6 
REMARK    4  A    between atoms: O3_8  and  C2_38 
REMARK    5  A    between atoms: O4_9  and  C1_12 
REMARK    6  A    between atoms: C2_13  and  N2_20 
REMARK    7  A    between atoms: C3_14  and  O3_21 
REMARK    8  A    between atoms: C5_16  and  C6_17 
REMARK       I    between atoms: C7_18  and  N2_20 
REMARK    9  A    between atoms: O3_21  and  C1_26 
REMARK   10  A    between atoms: C5_30  and  C6_31 
REMARK   11  A    between atoms: C1_37  and  C2_38 
REMARK   12  A    between atoms: C5_41  and  N5_48 
REMARK   13  A    between atoms: C6_42  and  C7_43 
REMARK   14  A    between atoms: C7_43  and  C8_44 
REMARK   15  A    between atoms: C8_44  and  C9_45 
REMARK       I    between atoms: C10_46  and  N5_48 
ROOT
HETATM    1  C1  GAL A   1      60.253  87.354  75.275  0.50 30.86     0.178 C 
HETATM    2  C2  GAL A   1      59.673  86.129  74.563  0.50 31.03     0.211 C 
HETATM    3  C3  GAL A   1      60.097  84.823  75.204  0.50 28.77     0.181 C 
HETATM    4  C4  GAL A   1      61.604  84.792  75.444  0.50 28.47     0.177 C 
HETATM    5  C5  GAL A   1      62.123  86.079  76.029  0.50 29.35     0.178 C 
HETATM    6  O2  GAL A   1      58.268  86.295  74.502  0.50 30.41    -0.218 OA
HETATM    7  O5  GAL A   1      61.675  87.221  75.306  0.50 30.35    -0.349 OA
ENDROOT
BRANCH   3   8
HETATM    8  O3  GAL A   1      59.840  83.733  74.339  0.50 28.34    -0.324 OA
BRANCH   8   9
HETATM    9  C2  SIA A   4      58.969  82.686  74.707  0.50 28.62     0.271 C 
HETATM   10  O6  SIA A   4      57.994  83.029  75.669  0.50 31.74    -0.325 OA
HETATM   11  C6  SIA A   4      57.115  81.984  76.109  0.50 34.04     0.176 C 
HETATM   12  C5  SIA A   4      56.403  81.291  74.963  0.50 33.06     0.166 C 
HETATM   13  C4  SIA A   4      57.471  80.833  73.969  0.50 31.88     0.182 C 
HETATM   14  C3  SIA A   4      58.245  82.071  73.505  0.50 29.71     0.103 C 
HETATM   15  O4  SIA A   4      56.869  80.192  72.873  0.50 38.09    -0.221 OA
BRANCH   9  16
HETATM   16  C1  SIA A   4      59.871  81.578  75.257  0.50 27.73     0.240 C 
HETATM   17  O1A SIA A   4      60.014  81.474  76.490  0.50 31.28    -0.644 OA
HETATM   18  O1B SIA A   4      60.411  80.866  74.382  0.50 17.68    -0.644 OA
ENDBRANCH   9  16
BRANCH  11  19
HETATM   19  C7  SIA A   4      56.147  82.611  77.112  0.50 33.71     0.214 C 
HETATM   20  O7  SIA A   4      55.511  83.760  76.559  0.50 32.14    -0.218 OA
BRANCH  19  21
HETATM   21  C8  SIA A   4      56.938  83.064  78.344  0.50 34.22     0.218 C 
HETATM   22  O8  SIA A   4      56.525  82.383  79.511  0.50 31.83    -0.218 OA
BRANCH  21  23
HETATM   23  C9  SIA A   4      56.751  84.570  78.487  0.50 33.50     0.218 C 
HETATM   24  O9  SIA A   4      57.997  85.136  78.797  0.50 28.00    -0.218 OA
ENDBRANCH  21  23
ENDBRANCH  19  21
ENDBRANCH  11  19
BRANCH  12  25
HETATM   25  N5  SIA A   4      55.545  80.194  75.342  0.50 34.22    -0.235 NA
HETATM   26  C10 SIA A   4      54.221  80.175  75.176  0.50 33.32     0.252 C 
HETATM   27  C11 SIA A   4      53.557  78.881  75.710  0.50 19.88     0.100 C 
HETATM   28  O10 SIA A   4      53.704  81.194  74.660  0.50 29.43    -0.271 OA
ENDBRANCH  12  25
ENDBRANCH   8   9
ENDBRANCH   3   8
BRANCH   5  29
HETATM   29  C6  GAL A   1      63.654  86.053  75.960  0.50 30.53     0.214 C 
HETATM   30  O6  GAL A   1      64.196  86.131  77.259  0.50 33.07    -0.218 OA
ENDBRANCH   5  29
BRANCH   4  31
HETATM   31  O4  GAL A   1      62.279  84.685  74.202  0.50 31.21    -0.327 OA
BRANCH  31  32
HETATM   32  C1  NGA A   2      62.871  83.418  73.952  0.50 28.26     0.262 C 
HETATM   33  C2  NGA A   2      64.172  83.774  73.217  0.50 24.34     0.192 C 
HETATM   34  C3  NGA A   2      64.953  82.526  72.977  0.50 23.13     0.178 C 
HETATM   35  C4  NGA A   2      65.180  81.722  74.265  0.50 23.45     0.211 C 
HETATM   36  C5  NGA A   2      63.816  81.450  74.856  0.50 23.37     0.184 C 
HETATM   37  O4  NGA A   2      65.999  82.482  75.119  0.50 26.44    -0.218 OA
HETATM   38  O5  NGA A   2      63.160  82.682  75.142  0.50 27.92    -0.327 OA
BRANCH  33  39
HETATM   39  N2  NGA A   2      63.796  84.586  72.082  0.50 23.90    -0.232 NA
HETATM   40  C7  NGA A   2      64.416  85.757  71.867  0.50 22.89     0.252 C 
HETATM   41  C8  NGA A   2      63.863  86.548  70.678  0.50 21.65     0.100 C 
HETATM   42  O7  NGA A   2      65.337  86.074  72.650  0.50 27.34    -0.271 OA
ENDBRANCH  33  39
BRANCH  34  43
HETATM   43  O3  NGA A   2      66.243  82.861  72.466  0.50 19.58    -0.327 OA
BRANCH  43  44
HETATM   44  C1  GAL A   3      66.360  82.268  71.177  0.50 14.41     0.270 C 
HETATM   45  C2  GAL A   3      67.796  82.408  70.721  0.50 11.27     0.241 C 
HETATM   46  O2  GAL A   3      68.145  83.777  70.710  0.50 11.99    -0.215 OA
HETATM   47  C3  GAL A   3      67.969  81.795  69.341  0.50  9.34     0.220 C 
HETATM   48  O3  GAL A   3      69.338  81.780  69.001  0.50 11.52    -0.218 OA
HETATM   49  C4  GAL A   3      67.314  80.420  69.262  0.50 10.13     0.215 C 
HETATM   50  O4  GAL A   3      68.062  79.542  70.060  0.50  7.87    -0.218 OA
HETATM   51  C5  GAL A   3      65.902  80.384  69.857  0.50 13.15     0.184 C 
HETATM   52  O5  GAL A   3      65.932  80.898  71.214  0.50 13.62    -0.326 OA
BRANCH  51  53
HETATM   53  C6  GAL A   3      65.301  78.987  69.954  0.50 18.07     0.215 C 
HETATM   54  O6  GAL A   3      65.101  78.591  71.295  0.50 13.12    -0.218 OA
ENDBRANCH  51  53
ENDBRANCH  43  44
ENDBRANCH  34  43
BRANCH  36  55
HETATM   55  C6  NGA A   2      63.770  80.442  75.974  0.50 20.58     0.215 C 
HETATM   56  O6  NGA A   2      64.629  79.377  75.635  0.50 30.49    -0.218 OA
ENDBRANCH  36  55
ENDBRANCH  31  32
ENDBRANCH   4  31
TORSDOF 15
ENDMDL
