MODEL 1
REMARK VINA RESULT:      -7.0      0.000      0.000
REMARK  15 active torsions:
REMARK  status: ('A' for Active; 'I' for Inactive)
REMARK    1  A    between atoms: C3_3  and  O3_8 
REMARK    2  A    between atoms: C4_4  and  O4_9 
REMARK    3  A    between atoms: C5_5  and  C6_6 
REMARK    4  A    between atoms: O3_8  and  C2_38 
REMARK    5  A    between atoms: O4_9  and  C1_12 
REMARK    6  A    between atoms: C2_13  and  N2_20 
REMARK    7  A    between atoms: C3_14  and  O3_21 
REMARK    8  A    between atoms: C5_16  and  C6_17 
REMARK       I    between atoms: C7_18  and  N2_20 
REMARK    9  A    between atoms: O3_21  and  C1_26 
REMARK   10  A    between atoms: C5_30  and  C6_31 
REMARK   11  A    between atoms: C1_37  and  C2_38 
REMARK   12  A    between atoms: C5_41  and  N5_48 
REMARK   13  A    between atoms: C6_42  and  C7_43 
REMARK   14  A    between atoms: C7_43  and  C8_44 
REMARK   15  A    between atoms: C8_44  and  C9_45 
REMARK       I    between atoms: C10_46  and  N5_48 
ROOT
HETATM    1  C1  GAL C   1      62.258  85.412  73.561  0.50 31.77     0.178 C 
HETATM    2  C2  GAL C   1      62.913  84.234  74.256  0.50 31.15     0.211 C 
HETATM    3  C3  GAL C   1      62.970  82.996  73.359  0.50 28.21     0.181 C 
HETATM    4  C4  GAL C   1      61.576  82.694  72.819  0.50 27.04     0.177 C 
HETATM    5  C5  GAL C   1      60.989  83.911  72.114  0.50 27.54     0.178 C 
HETATM    6  O2  GAL C   1      64.227  84.562  74.671  0.50 33.53    -0.218 OA
HETATM    7  O5  GAL C   1      61.025  85.056  72.956  0.50 31.32    -0.349 OA
ENDROOT
BRANCH   3   8
HETATM    8  O3  GAL C   1      63.505  81.938  74.123  0.50 27.69    -0.324 OA
BRANCH   8   9
HETATM    9  C2  SIA C   4      64.552  81.117  73.619  0.50 28.46     0.271 C 
HETATM   10  C3  SIA C   4      65.901  81.651  74.035  0.50 27.81     0.103 C 
HETATM   11  C4  SIA C   4      67.068  81.027  73.316  0.50 26.33     0.182 C 
HETATM   12  C5  SIA C   4      66.871  80.732  71.838  0.50 25.92     0.166 C 
HETATM   13  O4  SIA C   4      68.259  81.751  73.524  0.50 27.44    -0.221 OA
HETATM   14  C6  SIA C   4      65.472  80.194  71.576  0.50 24.60     0.176 C 
HETATM   15  O6  SIA C   4      64.468  80.976  72.202  0.50 29.11    -0.325 OA
BRANCH   9  16
HETATM   16  C1  SIA C   4      64.316  79.747  74.230  0.50 24.27     0.240 C 
HETATM   17  O1A SIA C   4      64.923  79.488  75.299  0.50 28.17    -0.644 OA
HETATM   18  O1B SIA C   4      63.573  78.923  73.680  0.50 21.53    -0.644 OA
ENDBRANCH   9  16
BRANCH  12  19
HETATM   19  N5  SIA C   4      67.881  79.747  71.451  0.50 25.74    -0.235 NA
HETATM   20  C10 SIA C   4      68.827  80.013  70.554  0.50 23.32     0.252 C 
HETATM   21  O10 SIA C   4      68.831  81.155  70.042  0.50 26.30    -0.271 OA
HETATM   22  C11 SIA C   4      69.766  78.818  70.345  0.50 20.27     0.100 C 
ENDBRANCH  12  19
BRANCH  14  23
HETATM   23  C7  SIA C   4      65.184  80.163  70.065  0.50 24.96     0.214 C 
HETATM   24  O7  SIA C   4      63.826  80.549  69.863  0.50 23.41    -0.218 OA
BRANCH  23  25
HETATM   25  C8  SIA C   4      65.449  78.744  69.569  0.50 24.91     0.218 C 
HETATM   26  O8  SIA C   4      66.248  78.762  68.396  0.50 25.01    -0.218 OA
BRANCH  25  27
HETATM   27  C9  SIA C   4      64.145  78.019  69.278  0.50 23.13     0.218 C 
HETATM   28  O9  SIA C   4      64.272  77.128  68.194  0.50 25.78    -0.218 OA
ENDBRANCH  25  27
ENDBRANCH  23  25
ENDBRANCH  14  23
ENDBRANCH   8   9
ENDBRANCH   3   8
BRANCH   5  29
HETATM   29  C6  GAL C   1      59.527  83.668  71.732  0.50 27.50     0.214 C 
HETATM   30  O6  GAL C   1      59.402  82.679  70.732  0.50 28.29    -0.218 OA
ENDBRANCH   5  29
BRANCH   4  31
HETATM   31  O4  GAL C   1      60.713  82.248  73.841  0.50 28.56    -0.327 OA
BRANCH  31  32
HETATM   32  C1  NGA C   2      60.270  80.886  73.795  0.50 27.07     0.262 C 
HETATM   33  C2  NGA C   2      58.730  80.851  73.803  0.50 26.50     0.192 C 
HETATM   34  C3  NGA C   2      58.234  79.420  73.654  0.50 25.00     0.178 C 
HETATM   35  C4  NGA C   2      58.852  78.795  72.392  0.50 27.34     0.211 C 
HETATM   36  C5  NGA C   2      60.366  78.919  72.504  0.50 25.92     0.184 C 
HETATM   37  O4  NGA C   2      58.375  79.540  71.286  0.50 27.11    -0.218 OA
HETATM   38  O5  NGA C   2      60.723  80.301  72.561  0.50 26.89    -0.327 OA
BRANCH  33  39
HETATM   39  N2  NGA C   2      58.295  81.482  75.019  0.50 29.00    -0.232 NA
HETATM   40  C7  NGA C   2      57.420  82.486  75.101  0.50 29.40     0.252 C 
HETATM   41  C8  NGA C   2      57.238  82.967  76.556  0.50 27.66     0.100 C 
HETATM   42  O7  NGA C   2      56.918  82.901  74.035  0.50 31.71    -0.271 OA
ENDBRANCH  33  39
BRANCH  34  43
HETATM   43  O3  NGA C   2      56.810  79.430  73.456  0.50 23.22    -0.327 OA
BRANCH  43  44
HETATM   44  C1  GAL C   3      56.131  78.583  74.383  0.50 18.08     0.270 C 
HETATM   45  C2  GAL C   3      54.688  78.990  74.633  0.50 14.48     0.241 C 
HETATM   46  O2  GAL C   3      54.632  80.351  75.006  0.50 18.21    -0.215 OA
HETATM   47  C3  GAL C   3      54.008  78.071  75.628  0.50 13.31     0.220 C 
HETATM   48  C4  GAL C   3      54.282  76.609  75.282  0.50 13.24     0.215 C 
HETATM   49  O3  GAL C   3      52.602  78.295  75.758  0.50 14.16    -0.218 OA
HETATM   50  C5  GAL C   3      55.758  76.339  74.978  0.50 14.42     0.184 C 
HETATM   51  O4  GAL C   3      53.548  76.225  74.144  0.50 12.87    -0.218 OA
HETATM   52  O5  GAL C   3      56.165  77.222  73.923  0.50 15.88    -0.326 OA
BRANCH  50  53
HETATM   53  C6  GAL C   3      55.930  74.927  74.426  0.50 14.56     0.215 C 
HETATM   54  O6  GAL C   3      56.350  74.011  75.393  0.50 15.78    -0.218 OA
ENDBRANCH  50  53
ENDBRANCH  43  44
ENDBRANCH  34  43
BRANCH  36  55
HETATM   55  C6  NGA C   2      61.066  78.200  71.376  0.50 26.88     0.215 C 
HETATM   56  O6  NGA C   2      60.547  76.886  71.261  0.50 27.96    -0.218 OA
ENDBRANCH  36  55
ENDBRANCH  31  32
ENDBRANCH   4  31
TORSDOF 15
ENDMDL
MODEL 2
REMARK VINA RESULT:      -6.9      3.324      6.430
REMARK  15 active torsions:
REMARK  status: ('A' for Active; 'I' for Inactive)
REMARK    1  A    between atoms: C3_3  and  O3_8 
REMARK    2  A    between atoms: C4_4  and  O4_9 
REMARK    3  A    between atoms: C5_5  and  C6_6 
REMARK    4  A    between atoms: O3_8  and  C2_38 
REMARK    5  A    between atoms: O4_9  and  C1_12 
REMARK    6  A    between atoms: C2_13  and  N2_20 
REMARK    7  A    between atoms: C3_14  and  O3_21 
REMARK    8  A    between atoms: C5_16  and  C6_17 
REMARK       I    between atoms: C7_18  and  N2_20 
REMARK    9  A    between atoms: O3_21  and  C1_26 
REMARK   10  A    between atoms: C5_30  and  C6_31 
REMARK   11  A    between atoms: C1_37  and  C2_38 
REMARK   12  A    between atoms: C5_41  and  N5_48 
REMARK   13  A    between atoms: C6_42  and  C7_43 
REMARK   14  A    between atoms: C7_43  and  C8_44 
REMARK   15  A    between atoms: C8_44  and  C9_45 
REMARK       I    between atoms: C10_46  and  N5_48 
ROOT
HETATM    1  C1  GAL C   1      64.660  78.658  69.666  0.50 31.77     0.178 C 
HETATM    2  C2  GAL C   1      65.160  80.089  69.694  0.50 31.15     0.211 C 
HETATM    3  C3  GAL C   1      65.634  80.507  71.087  0.50 28.21     0.181 C 
HETATM    4  C4  GAL C   1      64.535  80.220  72.105  0.50 27.04     0.177 C 
HETATM    5  C5  GAL C   1      64.099  78.762  72.040  0.50 27.54     0.178 C 
HETATM    6  O2  GAL C   1      66.223  80.268  68.774  0.50 33.53    -0.218 OA
HETATM    7  O5  GAL C   1      63.739  78.396  70.714  0.50 31.32    -0.349 OA
ENDROOT
BRANCH   3   8
HETATM    8  O3  GAL C   1      65.988  81.871  71.029  0.50 27.69    -0.324 OA
BRANCH   8   9
HETATM    9  C2  SIA C   4      67.315  82.304  71.300  0.50 28.46     0.271 C 
HETATM   10  C3  SIA C   4      67.737  83.383  70.335  0.50 27.81     0.103 C 
HETATM   11  C4  SIA C   4      69.210  83.697  70.354  0.50 26.33     0.182 C 
HETATM   12  C5  SIA C   4      70.150  82.513  70.517  0.50 25.92     0.166 C 
HETATM   13  O4  SIA C   4      69.592  84.487  69.251  0.50 27.44    -0.221 OA
HETATM   14  C6  SIA C   4      69.597  81.518  71.525  0.50 24.60     0.176 C 
HETATM   15  O6  SIA C   4      68.233  81.211  71.286  0.50 29.11    -0.325 OA
BRANCH   9  16
HETATM   16  C1  SIA C   4      67.276  82.849  72.718  0.50 24.27     0.240 C 
HETATM   17  O1A SIA C   4      67.439  82.022  73.649  0.50 28.17    -0.644 OA
HETATM   18  O1B SIA C   4      67.073  84.050  72.933  0.50 21.53    -0.644 OA
ENDBRANCH   9  16
BRANCH  12  19
HETATM   19  N5  SIA C   4      71.439  83.039  70.967  0.50 25.74    -0.235 NA
HETATM   20  C10 SIA C   4      72.556  82.885  70.261  0.50 23.32     0.252 C 
HETATM   21  O10 SIA C   4      72.472  82.268  69.176  0.50 26.30    -0.271 OA
HETATM   22  C11 SIA C   4      73.759  83.544  70.948  0.50 20.27     0.100 C 
ENDBRANCH  12  19
BRANCH  14  23
HETATM   23  C7  SIA C   4      70.399  80.206  71.479  0.50 24.96     0.214 C 
HETATM   24  O7  SIA C   4      69.484  79.132  71.269  0.50 23.41    -0.218 OA
BRANCH  23  25
HETATM   25  C8  SIA C   4      71.140  80.066  72.806  0.50 24.91     0.218 C 
HETATM   26  O8  SIA C   4      70.955  78.769  73.351  0.50 25.01    -0.218 OA
BRANCH  25  27
HETATM   27  C9  SIA C   4      70.663  81.106  73.807  0.50 23.13     0.218 C 
HETATM   28  O9  SIA C   4      70.979  80.742  75.131  0.50 25.78    -0.218 OA
ENDBRANCH  25  27
ENDBRANCH  23  25
ENDBRANCH  14  23
ENDBRANCH   8   9
ENDBRANCH   3   8
BRANCH   5  29
HETATM   29  C6  GAL C   1      62.877  78.517  72.930  0.50 27.50     0.214 C 
HETATM   30  O6  GAL C   1      62.028  77.523  72.394  0.50 28.29    -0.218 OA
ENDBRANCH   5  29
BRANCH   4  31
HETATM   31  O4  GAL C   1      63.431  81.078  71.927  0.50 28.56    -0.327 OA
BRANCH  31  32
HETATM   32  C1  NGA C   2      63.156  82.036  72.957  0.50 27.07     0.262 C 
HETATM   33  C2  NGA C   2      61.813  81.690  73.627  0.50 26.50     0.192 C 
HETATM   34  C3  NGA C   2      61.546  82.633  74.792  0.50 25.00     0.178 C 
HETATM   35  C4  NGA C   2      62.739  82.597  75.761  0.50 27.34     0.211 C 
HETATM   36  C5  NGA C   2      63.995  82.931  74.968  0.50 25.92     0.184 C 
HETATM   37  O4  NGA C   2      62.814  81.280  76.275  0.50 27.11    -0.218 OA
HETATM   38  O5  NGA C   2      64.188  81.942  73.954  0.50 26.89    -0.327 OA
BRANCH  33  39
HETATM   39  N2  NGA C   2      60.801  81.740  72.608  0.50 29.00    -0.232 NA
HETATM   40  C7  NGA C   2      59.805  80.864  72.460  0.50 29.40     0.252 C 
HETATM   41  C8  NGA C   2      58.946  81.182  71.218  0.50 27.66     0.100 C 
HETATM   42  O7  NGA C   2      59.730  79.932  73.289  0.50 31.71    -0.271 OA
ENDBRANCH  33  39
BRANCH  34  43
HETATM   43  O3  NGA C   2      60.401  82.167  75.527  0.50 23.22    -0.327 OA
BRANCH  43  44
HETATM   44  C1  GAL C   3      59.375  83.156  75.611  0.50 18.08     0.270 C 
HETATM   45  C2  GAL C   3      58.063  82.626  76.164  0.50 14.48     0.241 C 
HETATM   46  O2  GAL C   3      57.658  81.490  75.429  0.50 18.21    -0.215 OA
HETATM   47  C3  GAL C   3      57.001  83.704  76.229  0.50 13.31     0.220 C 
HETATM   48  C4  GAL C   3      57.568  84.979  76.850  0.50 13.24     0.215 C 
HETATM   49  O3  GAL C   3      55.810  83.307  76.912  0.50 14.16    -0.218 OA
HETATM   50  C5  GAL C   3      58.926  85.371  76.262  0.50 14.42     0.184 C 
HETATM   51  O4  GAL C   3      57.748  84.814  78.236  0.50 12.87    -0.218 OA
HETATM   52  O5  GAL C   3      59.819  84.259  76.420  0.50 15.88    -0.326 OA
BRANCH  50  53
HETATM   53  C6  GAL C   3      59.539  86.510  77.070  0.50 14.56     0.215 C 
HETATM   54  O6  GAL C   3      60.685  86.128  77.771  0.50 15.78    -0.218 OA
ENDBRANCH  50  53
ENDBRANCH  43  44
ENDBRANCH  34  43
BRANCH  36  55
HETATM   55  C6  NGA C   2      65.200  83.064  75.867  0.50 26.88     0.215 C 
HETATM   56  O6  NGA C   2      64.847  83.806  77.021  0.50 27.96    -0.218 OA
ENDBRANCH  36  55
ENDBRANCH  31  32
ENDBRANCH   4  31
TORSDOF 15
ENDMDL
MODEL 3
REMARK VINA RESULT:      -6.6      3.540     11.737
REMARK  15 active torsions:
REMARK  status: ('A' for Active; 'I' for Inactive)
REMARK    1  A    between atoms: C3_3  and  O3_8 
REMARK    2  A    between atoms: C4_4  and  O4_9 
REMARK    3  A    between atoms: C5_5  and  C6_6 
REMARK    4  A    between atoms: O3_8  and  C2_38 
REMARK    5  A    between atoms: O4_9  and  C1_12 
REMARK    6  A    between atoms: C2_13  and  N2_20 
REMARK    7  A    between atoms: C3_14  and  O3_21 
REMARK    8  A    between atoms: C5_16  and  C6_17 
REMARK       I    between atoms: C7_18  and  N2_20 
REMARK    9  A    between atoms: O3_21  and  C1_26 
REMARK   10  A    between atoms: C5_30  and  C6_31 
REMARK   11  A    between atoms: C1_37  and  C2_38 
REMARK   12  A    between atoms: C5_41  and  N5_48 
REMARK   13  A    between atoms: C6_42  and  C7_43 
REMARK   14  A    between atoms: C7_43  and  C8_44 
REMARK   15  A    between atoms: C8_44  and  C9_45 
REMARK       I    between atoms: C10_46  and  N5_48 
ROOT
HETATM    1  C1  GAL C   1      66.392  79.922  68.562  0.50 31.77     0.178 C 
HETATM    2  C2  GAL C   1      65.947  79.203  69.820  0.50 31.15     0.211 C 
HETATM    3  C3  GAL C   1      65.482  80.175  70.905  0.50 28.21     0.181 C 
HETATM    4  C4  GAL C   1      66.563  81.224  71.146  0.50 27.04     0.177 C 
HETATM    5  C5  GAL C   1      66.944  81.923  69.847  0.50 27.54     0.178 C 
HETATM    6  O2  GAL C   1      64.896  78.295  69.536  0.50 33.53    -0.218 OA
HETATM    7  O5  GAL C   1      67.296  80.978  68.844  0.50 31.32    -0.349 OA
ENDROOT
BRANCH   3   8
HETATM    8  O3  GAL C   1      65.181  79.420  72.058  0.50 27.69    -0.324 OA
BRANCH   8   9
HETATM    9  C2  SIA C   4      63.903  79.494  72.679  0.50 28.46     0.271 C 
HETATM   10  C3  SIA C   4      63.199  78.161  72.621  0.50 27.81     0.103 C 
HETATM   11  C4  SIA C   4      61.739  78.209  72.986  0.50 26.33     0.182 C 
HETATM   12  C5  SIA C   4      60.961  79.421  72.497  0.50 25.92     0.166 C 
HETATM   13  O4  SIA C   4      61.072  77.017  72.639  0.50 27.44    -0.221 OA
HETATM   14  C6  SIA C   4      61.794  80.687  72.625  0.50 24.60     0.176 C 
HETATM   15  O6  SIA C   4      63.103  80.526  72.103  0.50 29.11    -0.325 OA
BRANCH   9  16
HETATM   16  C1  SIA C   4      64.180  79.882  74.121  0.50 24.27     0.240 C 
HETATM   17  O1A SIA C   4      64.375  78.944  74.935  0.50 28.17    -0.644 OA
HETATM   18  O1B SIA C   4      64.191  81.069  74.471  0.50 21.53    -0.644 OA
ENDBRANCH   9  16
BRANCH  12  19
HETATM   19  N5  SIA C   4      59.749  79.518  73.310  0.50 25.74    -0.235 NA
HETATM   20  C10 SIA C   4      58.530  79.420  72.786  0.50 23.32     0.252 C 
HETATM   21  O10 SIA C   4      58.447  79.234  71.551  0.50 26.30    -0.271 OA
HETATM   22  C11 SIA C   4      57.438  79.539  73.856  0.50 20.27     0.100 C 
ENDBRANCH  12  19
BRANCH  14  23
HETATM   23  C7  SIA C   4      61.120  81.851  71.879  0.50 24.96     0.214 C 
HETATM   24  O7  SIA C   4      62.036  82.345  70.905  0.50 23.41    -0.218 OA
BRANCH  23  25
HETATM   25  C8  SIA C   4      60.759  82.918  72.909  0.50 24.91     0.218 C 
HETATM   26  O8  SIA C   4      61.247  82.563  74.194  0.50 25.01    -0.218 OA
BRANCH  25  27
HETATM   27  C9  SIA C   4      59.255  83.119  72.980  0.50 23.13     0.218 C 
HETATM   28  O9  SIA C   4      58.626  82.809  71.757  0.50 25.78    -0.218 OA
ENDBRANCH  25  27
ENDBRANCH  23  25
ENDBRANCH  14  23
ENDBRANCH   8   9
ENDBRANCH   3   8
BRANCH   5  29
HETATM   29  C6  GAL C   1      68.150  82.842  70.055  0.50 27.50     0.214 C 
HETATM   30  O6  GAL C   1      68.837  83.087  68.845  0.50 28.29    -0.218 OA
ENDBRANCH   5  29
BRANCH   4  31
HETATM   31  O4  GAL C   1      67.700  80.659  71.759  0.50 28.56    -0.327 OA
BRANCH  31  32
HETATM   32  C1  NGA C   2      68.110  81.189  73.026  0.50 27.07     0.262 C 
HETATM   33  C2  NGA C   2      69.536  81.758  72.902  0.50 26.50     0.192 C 
HETATM   34  C3  NGA C   2      69.956  82.418  74.208  0.50 25.00     0.178 C 
HETATM   35  C4  NGA C   2      68.910  83.473  74.606  0.50 27.34     0.211 C 
HETATM   36  C5  NGA C   2      67.553  82.785  74.667  0.50 25.92     0.184 C 
HETATM   37  O4  NGA C   2      68.918  84.464  73.595  0.50 27.11    -0.218 OA
HETATM   38  O5  NGA C   2      67.227  82.271  73.374  0.50 26.89    -0.327 OA
BRANCH  33  39
HETATM   39  N2  NGA C   2      70.395  80.677  72.507  0.50 29.00    -0.232 NA
HETATM   40  C7  NGA C   2      71.312  80.728  71.539  0.50 29.40     0.252 C 
HETATM   41  C8  NGA C   2      72.003  79.364  71.335  0.50 27.66     0.100 C 
HETATM   42  O7  NGA C   2      71.454  81.814  70.938  0.50 31.71    -0.271 OA
ENDBRANCH  33  39
BRANCH  34  43
HETATM   43  O3  NGA C   2      71.195  83.118  74.009  0.50 23.22    -0.327 OA
BRANCH  43  44
HETATM   44  C1  GAL C   3      72.265  82.547  74.761  0.50 18.08     0.270 C 
HETATM   45  C2  GAL C   3      73.596  83.251  74.557  0.50 14.48     0.241 C 
HETATM   46  O2  GAL C   3      73.890  83.330  73.178  0.50 18.21    -0.215 OA
HETATM   47  C3  GAL C   3      74.704  82.609  75.367  0.50 13.31     0.220 C 
HETATM   48  C4  GAL C   3      74.246  82.363  76.803  0.50 13.24     0.215 C 
HETATM   49  O3  GAL C   3      75.931  83.341  75.357  0.50 14.16    -0.218 OA
HETATM   50  C5  GAL C   3      72.860  81.717  76.880  0.50 14.42     0.184 C 
HETATM   51  O4  GAL C   3      74.178  83.576  77.513  0.50 12.87    -0.218 OA
HETATM   52  O5  GAL C   3      71.939  82.550  76.162  0.50 15.88    -0.326 OA
BRANCH  50  53
HETATM   53  C6  GAL C   3      72.367  81.703  78.323  0.50 14.56     0.215 C 
HETATM   54  O6  GAL C   3      71.148  82.364  78.489  0.50 15.78    -0.218 OA
ENDBRANCH  50  53
ENDBRANCH  43  44
ENDBRANCH  34  43
BRANCH  36  55
HETATM   55  C6  NGA C   2      66.484  83.711  75.194  0.50 26.88     0.215 C 
HETATM   56  O6  NGA C   2      65.996  83.213  76.428  0.50 27.96    -0.218 OA
ENDBRANCH  36  55
ENDBRANCH  31  32
ENDBRANCH   4  31
TORSDOF 15
ENDMDL
MODEL 4
REMARK VINA RESULT:      -6.4      4.592     11.138
REMARK  15 active torsions:
REMARK  status: ('A' for Active; 'I' for Inactive)
REMARK    1  A    between atoms: C3_3  and  O3_8 
REMARK    2  A    between atoms: C4_4  and  O4_9 
REMARK    3  A    between atoms: C5_5  and  C6_6 
REMARK    4  A    between atoms: O3_8  and  C2_38 
REMARK    5  A    between atoms: O4_9  and  C1_12 
REMARK    6  A    between atoms: C2_13  and  N2_20 
REMARK    7  A    between atoms: C3_14  and  O3_21 
REMARK    8  A    between atoms: C5_16  and  C6_17 
REMARK       I    between atoms: C7_18  and  N2_20 
REMARK    9  A    between atoms: O3_21  and  C1_26 
REMARK   10  A    between atoms: C5_30  and  C6_31 
REMARK   11  A    between atoms: C1_37  and  C2_38 
REMARK   12  A    between atoms: C5_41  and  N5_48 
REMARK   13  A    between atoms: C6_42  and  C7_43 
REMARK   14  A    between atoms: C7_43  and  C8_44 
REMARK   15  A    between atoms: C8_44  and  C9_45 
REMARK       I    between atoms: C10_46  and  N5_48 
ROOT
HETATM    1  C1  GAL C   1      66.536  86.400  75.603  0.50 31.77     0.178 C 
HETATM    2  C2  GAL C   1      66.273  85.567  74.364  0.50 31.15     0.211 C 
HETATM    3  C3  GAL C   1      66.415  84.069  74.637  0.50 28.21     0.181 C 
HETATM    4  C4  GAL C   1      67.769  83.796  75.285  0.50 27.04     0.177 C 
HETATM    5  C5  GAL C   1      67.956  84.648  76.535  0.50 27.54     0.178 C 
HETATM    6  O2  GAL C   1      64.974  85.819  73.854  0.50 33.53    -0.218 OA
HETATM    7  O5  GAL C   1      67.740  86.024  76.251  0.50 31.32    -0.349 OA
ENDROOT
BRANCH   3   8
HETATM    8  O3  GAL C   1      66.246  83.390  73.412  0.50 27.69    -0.324 OA
BRANCH   8   9
HETATM    9  C2  SIA C   4      65.356  82.287  73.293  0.50 28.46     0.271 C 
HETATM   10  C3  SIA C   4      64.990  81.743  74.652  0.50 27.81     0.103 C 
HETATM   11  C4  SIA C   4      64.294  80.408  74.623  0.50 26.33     0.182 C 
HETATM   12  C5  SIA C   4      64.794  79.408  73.593  0.50 25.92     0.166 C 
HETATM   13  O4  SIA C   4      64.237  79.818  75.901  0.50 27.44    -0.221 OA
HETATM   14  C6  SIA C   4      65.113  80.100  72.277  0.50 24.60     0.176 C 
HETATM   15  O6  SIA C   4      65.900  81.266  72.458  0.50 29.11    -0.325 OA
BRANCH   9  16
HETATM   16  C1  SIA C   4      64.124  82.839  72.596  0.50 24.27     0.240 C 
HETATM   17  O1A SIA C   4      63.133  83.107  73.321  0.50 28.17    -0.644 OA
HETATM   18  O1B SIA C   4      64.103  82.995  71.369  0.50 21.53    -0.644 OA
ENDBRANCH   9  16
BRANCH  12  19
HETATM   19  N5  SIA C   4      63.742  78.409  73.407  0.50 25.74    -0.235 NA
HETATM   20  C10 SIA C   4      62.558  78.712  72.883  0.50 23.32     0.252 C 
HETATM   21  O10 SIA C   4      62.365  79.900  72.541  0.50 26.30    -0.271 OA
HETATM   22  C11 SIA C   4      61.647  77.482  72.784  0.50 20.27     0.100 C 
ENDBRANCH  12  19
BRANCH  14  23
HETATM   23  C7  SIA C   4      65.875  79.148  71.340  0.50 24.96     0.214 C 
HETATM   24  O7  SIA C   4      67.232  79.580  71.273  0.50 23.41    -0.218 OA
BRANCH  23  25
HETATM   25  C8  SIA C   4      65.198  79.198  69.973  0.50 24.91     0.218 C 
HETATM   26  O8  SIA C   4      64.285  78.122  69.823  0.50 25.01    -0.218 OA
BRANCH  25  27
HETATM   27  C9  SIA C   4      66.227  79.144  68.855  0.50 23.13     0.218 C 
HETATM   28  O9  SIA C   4      66.508  80.425  68.339  0.50 25.78    -0.218 OA
ENDBRANCH  25  27
ENDBRANCH  23  25
ENDBRANCH  14  23
ENDBRANCH   8   9
ENDBRANCH   3   8
BRANCH   5  29
HETATM   29  C6  GAL C   1      69.380  84.510  77.081  0.50 27.50     0.214 C 
HETATM   30  O6  GAL C   1      69.493  83.431  77.985  0.50 28.29    -0.218 OA
ENDBRANCH   5  29
BRANCH   4  31
HETATM   31  O4  GAL C   1      68.826  84.007  74.377  0.50 28.56    -0.327 OA
BRANCH  31  32
HETATM   32  C1  NGA C   2      69.512  82.856  73.870  0.50 27.07     0.262 C 
HETATM   33  C2  NGA C   2      70.238  83.230  72.564  0.50 26.50     0.192 C 
HETATM   34  C3  NGA C   2      71.056  82.050  72.059  0.50 25.00     0.178 C 
HETATM   35  C4  NGA C   2      72.007  81.575  73.171  0.50 27.34     0.211 C 
HETATM   36  C5  NGA C   2      71.167  81.265  74.402  0.50 25.92     0.184 C 
HETATM   37  O4  NGA C   2      72.898  82.643  73.436  0.50 27.11    -0.218 OA
HETATM   38  O5  NGA C   2      70.505  82.456  74.832  0.50 26.89    -0.327 OA
BRANCH  33  39
HETATM   39  N2  NGA C   2      69.239  83.672  71.631  0.50 29.00    -0.232 NA
HETATM   40  C7  NGA C   2      69.271  84.815  70.943  0.50 29.40     0.252 C 
HETATM   41  C8  NGA C   2      68.000  85.003  70.089  0.50 27.66     0.100 C 
HETATM   42  O7  NGA C   2      70.263  85.556  71.105  0.50 31.71    -0.271 OA
ENDBRANCH  33  39
BRANCH  34  43
HETATM   43  O3  NGA C   2      71.883  82.480  70.963  0.50 23.22    -0.327 OA
BRANCH  43  44
HETATM   44  C1  GAL C   3      71.706  81.668  69.803  0.50 18.08     0.270 C 
HETATM   45  C2  GAL C   3      72.985  81.452  69.010  0.50 14.48     0.241 C 
HETATM   46  O2  GAL C   3      73.578  82.698  68.711  0.50 18.21    -0.215 OA
HETATM   47  C3  GAL C   3      72.750  80.593  67.785  0.50 13.31     0.220 C 
HETATM   48  C4  GAL C   3      71.922  79.361  68.143  0.50 13.24     0.215 C 
HETATM   49  O3  GAL C   3      73.948  80.207  67.109  0.50 14.16    -0.218 OA
HETATM   50  C5  GAL C   3      70.702  79.697  69.004  0.50 14.42     0.184 C 
HETATM   51  O4  GAL C   3      72.700  78.439  68.869  0.50 12.87    -0.218 OA
HETATM   52  O5  GAL C   3      71.158  80.392  70.174  0.50 15.88    -0.326 OA
BRANCH  50  53
HETATM   53  C6  GAL C   3      70.049  78.416  69.512  0.50 14.56     0.215 C 
HETATM   54  O6  GAL C   3      69.493  77.644  68.489  0.50 15.78    -0.218 OA
ENDBRANCH  50  53
ENDBRANCH  43  44
ENDBRANCH  34  43
BRANCH  36  55
HETATM   55  C6  NGA C   2      71.999  80.651  75.502  0.50 26.88     0.215 C 
HETATM   56  O6  NGA C   2      71.772  81.354  76.711  0.50 27.96    -0.218 OA
ENDBRANCH  36  55
ENDBRANCH  31  32
ENDBRANCH   4  31
TORSDOF 15
ENDMDL
MODEL 5
REMARK VINA RESULT:      -6.4      4.399     11.057
REMARK  15 active torsions:
REMARK  status: ('A' for Active; 'I' for Inactive)
REMARK    1  A    between atoms: C3_3  and  O3_8 
REMARK    2  A    between atoms: C4_4  and  O4_9 
REMARK    3  A    between atoms: C5_5  and  C6_6 
REMARK    4  A    between atoms: O3_8  and  C2_38 
REMARK    5  A    between atoms: O4_9  and  C1_12 
REMARK    6  A    between atoms: C2_13  and  N2_20 
REMARK    7  A    between atoms: C3_14  and  O3_21 
REMARK    8  A    between atoms: C5_16  and  C6_17 
REMARK       I    between atoms: C7_18  and  N2_20 
REMARK    9  A    between atoms: O3_21  and  C1_26 
REMARK   10  A    between atoms: C5_30  and  C6_31 
REMARK   11  A    between atoms: C1_37  and  C2_38 
REMARK   12  A    between atoms: C5_41  and  N5_48 
REMARK   13  A    between atoms: C6_42  and  C7_43 
REMARK   14  A    between atoms: C7_43  and  C8_44 
REMARK   15  A    between atoms: C8_44  and  C9_45 
REMARK       I    between atoms: C10_46  and  N5_48 
ROOT
HETATM    1  C1  GAL C   1      66.780  86.189  76.311  0.50 31.77     0.178 C 
HETATM    2  C2  GAL C   1      66.235  85.655  75.001  0.50 31.15     0.211 C 
HETATM    3  C3  GAL C   1      66.136  84.129  74.998  0.50 28.21     0.181 C 
HETATM    4  C4  GAL C   1      67.482  83.531  75.392  0.50 27.04     0.177 C 
HETATM    5  C5  GAL C   1      67.957  84.091  76.727  0.50 27.54     0.178 C 
HETATM    6  O2  GAL C   1      64.955  86.200  74.730  0.50 33.53    -0.218 OA
HETATM    7  O5  GAL C   1      67.962  85.513  76.711  0.50 31.32    -0.349 OA
ENDROOT
BRANCH   3   8
HETATM    8  O3  GAL C   1      65.711  83.729  73.713  0.50 27.69    -0.324 OA
BRANCH   8   9
HETATM    9  C2  SIA C   4      64.911  82.569  73.526  0.50 28.46     0.271 C 
HETATM   10  C3  SIA C   4      64.797  81.781  74.808  0.50 27.81     0.103 C 
HETATM   11  C4  SIA C   4      64.220  80.400  74.642  0.50 26.33     0.182 C 
HETATM   12  C5  SIA C   4      64.646  79.634  73.400  0.50 25.92     0.166 C 
HETATM   13  O4  SIA C   4      64.403  79.614  75.798  0.50 27.44    -0.221 OA
HETATM   14  C6  SIA C   4      64.707  80.555  72.191  0.50 24.60     0.176 C 
HETATM   15  O6  SIA C   4      65.411  81.756  72.464  0.50 29.11    -0.325 OA
BRANCH   9  16
HETATM   16  C1  SIA C   4      63.548  83.087  73.101  0.50 24.27     0.240 C 
HETATM   17  O1A SIA C   4      62.672  83.181  73.997  0.50 28.17    -0.644 OA
HETATM   18  O1B SIA C   4      63.316  83.380  71.921  0.50 21.53    -0.644 OA
ENDBRANCH   9  16
BRANCH  12  19
HETATM   19  N5  SIA C   4      63.667  78.569  73.186  0.50 25.74    -0.235 NA
HETATM   20  C10 SIA C   4      62.375  78.819  72.990  0.50 23.32     0.252 C 
HETATM   21  O10 SIA C   4      62.013  80.017  72.989  0.50 26.30    -0.271 OA
HETATM   22  C11 SIA C   4      61.572  77.530  72.776  0.50 20.27     0.100 C 
ENDBRANCH  12  19
BRANCH  14  23
HETATM   23  C7  SIA C   4      65.401  79.850  71.013  0.50 24.96     0.214 C 
HETATM   24  O7  SIA C   4      66.583  80.580  70.691  0.50 23.41    -0.218 OA
BRANCH  23  25
HETATM   25  C8  SIA C   4      64.420  79.819  69.845  0.50 24.91     0.218 C 
HETATM   26  O8  SIA C   4      63.321  80.685  70.088  0.50 25.01    -0.218 OA
BRANCH  25  27
HETATM   27  C9  SIA C   4      63.906  78.410  69.604  0.50 23.13     0.218 C 
HETATM   28  O9  SIA C   4      62.509  78.385  69.420  0.50 25.78    -0.218 OA
ENDBRANCH  25  27
ENDBRANCH  23  25
ENDBRANCH  14  23
ENDBRANCH   8   9
ENDBRANCH   3   8
BRANCH   5  29
HETATM   29  C6  GAL C   1      69.385  83.632  77.035  0.50 27.50     0.214 C 
HETATM   30  O6  GAL C   1      69.519  83.199  78.373  0.50 28.29    -0.218 OA
ENDBRANCH   5  29
BRANCH   4  31
HETATM   31  O4  GAL C   1      68.452  83.740  74.391  0.50 28.56    -0.327 OA
BRANCH  31  32
HETATM   32  C1  NGA C   2      68.966  82.591  73.706  0.50 27.07     0.262 C 
HETATM   33  C2  NGA C   2      69.362  82.989  72.272  0.50 26.50     0.192 C 
HETATM   34  C3  NGA C   2      70.003  81.809  71.556  0.50 25.00     0.178 C 
HETATM   35  C4  NGA C   2      71.183  81.285  72.392  0.50 27.34     0.211 C 
HETATM   36  C5  NGA C   2      70.659  80.955  73.783  0.50 25.92     0.184 C 
HETATM   37  O4  NGA C   2      72.139  82.327  72.457  0.50 27.11    -0.218 OA
HETATM   38  O5  NGA C   2      70.151  82.146  74.389  0.50 26.89    -0.327 OA
BRANCH  33  39
HETATM   39  N2  NGA C   2      68.178  83.476  71.621  0.50 29.00    -0.232 NA
HETATM   40  C7  NGA C   2      68.028  84.691  71.091  0.50 29.40     0.252 C 
HETATM   41  C8  NGA C   2      66.603  84.902  70.537  0.50 27.66     0.100 C 
HETATM   42  O7  NGA C   2      69.007  85.467  71.144  0.50 31.71    -0.271 OA
ENDBRANCH  33  39
BRANCH  34  43
HETATM   43  O3  NGA C   2      70.550  82.254  70.303  0.50 23.22    -0.327 OA
BRANCH  43  44
HETATM   44  C1  GAL C   3      71.396  81.273  69.704  0.50 18.08     0.270 C 
HETATM   45  C2  GAL C   3      70.636  80.157  69.007  0.50 14.48     0.241 C 
HETATM   46  O2  GAL C   3      69.698  79.589  69.897  0.50 18.21    -0.215 OA
HETATM   47  C3  GAL C   3      71.571  79.136  68.393  0.50 13.31     0.220 C 
HETATM   48  C4  GAL C   3      72.685  79.829  67.611  0.50 13.24     0.215 C 
HETATM   49  O3  GAL C   3      70.915  78.169  67.570  0.50 14.16    -0.218 OA
HETATM   50  C5  GAL C   3      73.325  80.982  68.389  0.50 14.42     0.184 C 
HETATM   51  O4  GAL C   3      72.184  80.366  66.411  0.50 12.87    -0.218 OA
HETATM   52  O5  GAL C   3      72.286  81.898  68.763  0.50 15.88    -0.326 OA
BRANCH  50  53
HETATM   53  C6  GAL C   3      74.264  81.769  67.481  0.50 14.56     0.215 C 
HETATM   54  O6  GAL C   3      74.022  83.144  67.508  0.50 15.78    -0.218 OA
ENDBRANCH  50  53
ENDBRANCH  43  44
ENDBRANCH  34  43
BRANCH  36  55
HETATM   55  C6  NGA C   2      71.717  80.294  74.633  0.50 26.88     0.215 C 
HETATM   56  O6  NGA C   2      71.662  80.821  75.947  0.50 27.96    -0.218 OA
ENDBRANCH  36  55
ENDBRANCH  31  32
ENDBRANCH   4  31
TORSDOF 15
ENDMDL
MODEL 6
REMARK VINA RESULT:      -6.3      3.548     11.640
REMARK  15 active torsions:
REMARK  status: ('A' for Active; 'I' for Inactive)
REMARK    1  A    between atoms: C3_3  and  O3_8 
REMARK    2  A    between atoms: C4_4  and  O4_9 
REMARK    3  A    between atoms: C5_5  and  C6_6 
REMARK    4  A    between atoms: O3_8  and  C2_38 
REMARK    5  A    between atoms: O4_9  and  C1_12 
REMARK    6  A    between atoms: C2_13  and  N2_20 
REMARK    7  A    between atoms: C3_14  and  O3_21 
REMARK    8  A    between atoms: C5_16  and  C6_17 
REMARK       I    between atoms: C7_18  and  N2_20 
REMARK    9  A    between atoms: O3_21  and  C1_26 
REMARK   10  A    between atoms: C5_30  and  C6_31 
REMARK   11  A    between atoms: C1_37  and  C2_38 
REMARK   12  A    between atoms: C5_41  and  N5_48 
REMARK   13  A    between atoms: C6_42  and  C7_43 
REMARK   14  A    between atoms: C7_43  and  C8_44 
REMARK   15  A    between atoms: C8_44  and  C9_45 
REMARK       I    between atoms: C10_46  and  N5_48 
ROOT
HETATM    1  C1  GAL C   1      66.587  79.866  68.815  0.50 31.77     0.178 C 
HETATM    2  C2  GAL C   1      66.156  79.316  70.161  0.50 31.15     0.211 C 
HETATM    3  C3  GAL C   1      65.778  80.427  71.142  0.50 28.21     0.181 C 
HETATM    4  C4  GAL C   1      66.917  81.439  71.227  0.50 27.04     0.177 C 
HETATM    5  C5  GAL C   1      67.281  81.967  69.845  0.50 27.54     0.178 C 
HETATM    6  O2  GAL C   1      65.054  78.438  70.015  0.50 33.53    -0.218 OA
HETATM    7  O5  GAL C   1      67.550  80.899  68.946  0.50 31.32    -0.349 OA
ENDROOT
BRANCH   3   8
HETATM    8  O3  GAL C   1      65.485  79.823  72.383  0.50 27.69    -0.324 OA
BRANCH   8   9
HETATM    9  C2  SIA C   4      64.166  79.827  72.915  0.50 28.46     0.271 C 
HETATM   10  C3  SIA C   4      63.557  78.448  72.853  0.50 27.81     0.103 C 
HETATM   11  C4  SIA C   4      62.075  78.407  73.119  0.50 26.33     0.182 C 
HETATM   12  C5  SIA C   4      61.254  79.549  72.541  0.50 25.92     0.166 C 
HETATM   13  O4  SIA C   4      61.513  77.164  72.768  0.50 27.44    -0.221 OA
HETATM   14  C6  SIA C   4      61.991  80.872  72.683  0.50 24.60     0.176 C 
HETATM   15  O6  SIA C   4      63.340  80.786  72.254  0.50 29.11    -0.325 OA
BRANCH   9  16
HETATM   16  C1  SIA C   4      64.318  80.273  74.359  0.50 24.27     0.240 C 
HETATM   17  O1A SIA C   4      64.220  81.504  74.587  0.50 28.17    -0.644 OA
HETATM   18  O1B SIA C   4      64.548  79.454  75.258  0.50 21.53    -0.644 OA
ENDBRANCH   9  16
BRANCH  12  19
HETATM   19  N5  SIA C   4      59.986  79.586  73.268  0.50 25.74    -0.235 NA
HETATM   20  C10 SIA C   4      58.828  79.269  72.697  0.50 23.32     0.252 C 
HETATM   21  O10 SIA C   4      58.854  78.925  71.494  0.50 26.30    -0.271 OA
HETATM   22  C11 SIA C   4      57.657  79.374  73.683  0.50 20.27     0.100 C 
ENDBRANCH  12  19
BRANCH  14  23
HETATM   23  C7  SIA C   4      61.294  81.966  71.857  0.50 24.96     0.214 C 
HETATM   24  O7  SIA C   4      62.038  82.159  70.656  0.50 23.41    -0.218 OA
BRANCH  23  25
HETATM   25  C8  SIA C   4      61.252  83.235  72.705  0.50 24.91     0.218 C 
HETATM   26  O8  SIA C   4      62.527  83.859  72.741  0.50 25.01    -0.218 OA
BRANCH  25  27
HETATM   27  C9  SIA C   4      60.805  82.924  74.124  0.50 23.13     0.218 C 
HETATM   28  O9  SIA C   4      61.641  83.532  75.082  0.50 25.78    -0.218 OA
ENDBRANCH  25  27
ENDBRANCH  23  25
ENDBRANCH  14  23
ENDBRANCH   8   9
ENDBRANCH   3   8
BRANCH   5  29
HETATM   29  C6  GAL C   1      68.537  82.840  69.908  0.50 27.50     0.214 C 
HETATM   30  O6  GAL C   1      68.501  83.881  68.953  0.50 28.29    -0.218 OA
ENDBRANCH   5  29
BRANCH   4  31
HETATM   31  O4  GAL C   1      68.048  80.889  71.864  0.50 28.56    -0.327 OA
BRANCH  31  32
HETATM   32  C1  NGA C   2      68.484  81.491  73.089  0.50 27.07     0.262 C 
HETATM   33  C2  NGA C   2      69.819  82.220  72.851  0.50 26.50     0.192 C 
HETATM   34  C3  NGA C   2      70.253  82.952  74.113  0.50 25.00     0.178 C 
HETATM   35  C4  NGA C   2      69.122  83.886  74.575  0.50 27.34     0.211 C 
HETATM   36  C5  NGA C   2      67.865  83.045  74.747  0.50 25.92     0.184 C 
HETATM   37  O4  NGA C   2      68.938  84.849  73.554  0.50 27.11    -0.218 OA
HETATM   38  O5  NGA C   2      67.508  82.469  73.489  0.50 26.89    -0.327 OA
BRANCH  33  39
HETATM   39  N2  NGA C   2      70.769  81.238  72.406  0.50 29.00    -0.232 NA
HETATM   40  C7  NGA C   2      71.651  81.403  71.418  0.50 29.40     0.252 C 
HETATM   41  C8  NGA C   2      72.466  80.118  71.159  0.50 27.66     0.100 C 
HETATM   42  O7  NGA C   2      71.669  82.513  70.843  0.50 31.71    -0.271 OA
ENDBRANCH  33  39
BRANCH  34  43
HETATM   43  O3  NGA C   2      71.384  83.788  73.811  0.50 23.22    -0.327 OA
BRANCH  43  44
HETATM   44  C1  GAL C   3      72.476  83.560  74.700  0.50 18.08     0.270 C 
HETATM   45  C2  GAL C   3      72.213  84.030  76.121  0.50 14.48     0.241 C 
HETATM   46  O2  GAL C   3      71.802  85.380  76.110  0.50 18.21    -0.215 OA
HETATM   47  C3  GAL C   3      73.400  83.775  77.028  0.50 13.31     0.220 C 
HETATM   48  C4  GAL C   3      73.926  82.354  76.838  0.50 13.24     0.215 C 
HETATM   49  O3  GAL C   3      73.139  84.027  78.411  0.50 14.16    -0.218 OA
HETATM   50  C5  GAL C   3      74.080  81.972  75.364  0.50 14.42     0.184 C 
HETATM   51  O4  GAL C   3      73.047  81.421  77.418  0.50 12.87    -0.218 OA
HETATM   52  O5  GAL C   3      72.812  82.162  74.719  0.50 15.88    -0.326 OA
BRANCH  50  53
HETATM   53  C6  GAL C   3      74.390  80.484  75.237  0.50 14.56     0.215 C 
HETATM   54  O6  GAL C   3      73.473  79.803  74.433  0.50 15.78    -0.218 OA
ENDBRANCH  50  53
ENDBRANCH  43  44
ENDBRANCH  34  43
BRANCH  36  55
HETATM   55  C6  NGA C   2      66.735  83.851  75.342  0.50 26.88     0.215 C 
HETATM   56  O6  NGA C   2      66.388  83.313  76.606  0.50 27.96    -0.218 OA
ENDBRANCH  36  55
ENDBRANCH  31  32
ENDBRANCH   4  31
TORSDOF 15
ENDMDL
MODEL 7
REMARK VINA RESULT:      -6.2      4.695      8.536
REMARK  15 active torsions:
REMARK  status: ('A' for Active; 'I' for Inactive)
REMARK    1  A    between atoms: C3_3  and  O3_8 
REMARK    2  A    between atoms: C4_4  and  O4_9 
REMARK    3  A    between atoms: C5_5  and  C6_6 
REMARK    4  A    between atoms: O3_8  and  C2_38 
REMARK    5  A    between atoms: O4_9  and  C1_12 
REMARK    6  A    between atoms: C2_13  and  N2_20 
REMARK    7  A    between atoms: C3_14  and  O3_21 
REMARK    8  A    between atoms: C5_16  and  C6_17 
REMARK       I    between atoms: C7_18  and  N2_20 
REMARK    9  A    between atoms: O3_21  and  C1_26 
REMARK   10  A    between atoms: C5_30  and  C6_31 
REMARK   11  A    between atoms: C1_37  and  C2_38 
REMARK   12  A    between atoms: C5_41  and  N5_48 
REMARK   13  A    between atoms: C6_42  and  C7_43 
REMARK   14  A    between atoms: C7_43  and  C8_44 
REMARK   15  A    between atoms: C8_44  and  C9_45 
REMARK       I    between atoms: C10_46  and  N5_48 
ROOT
HETATM    1  C1  GAL C   1      64.657  78.715  70.140  0.50 31.77     0.178 C 
HETATM    2  C2  GAL C   1      65.446  79.946  69.739  0.50 31.15     0.211 C 
HETATM    3  C3  GAL C   1      66.458  80.355  70.811  0.50 28.21     0.181 C 
HETATM    4  C4  GAL C   1      65.749  80.490  72.155  0.50 27.04     0.177 C 
HETATM    5  C5  GAL C   1      64.998  79.211  72.506  0.50 27.54     0.178 C 
HETATM    6  O2  GAL C   1      66.132  79.728  68.519  0.50 33.53    -0.218 OA
HETATM    7  O5  GAL C   1      64.126  78.827  71.451  0.50 31.32    -0.349 OA
ENDROOT
BRANCH   3   8
HETATM    8  O3  GAL C   1      67.070  81.554  70.389  0.50 27.69    -0.324 OA
BRANCH   8   9
HETATM    9  C2  SIA C   4      68.480  81.726  70.446  0.50 28.46     0.271 C 
HETATM   10  C3  SIA C   4      69.143  81.146  69.222  0.50 27.81     0.103 C 
HETATM   11  C4  SIA C   4      70.641  81.018  69.324  0.50 26.33     0.182 C 
HETATM   12  C5  SIA C   4      71.191  80.587  70.674  0.50 25.92     0.166 C 
HETATM   13  O4  SIA C   4      71.170  80.216  68.293  0.50 27.44    -0.221 OA
HETATM   14  C6  SIA C   4      70.431  81.259  71.808  0.50 24.60     0.176 C 
HETATM   15  O6  SIA C   4      69.025  81.168  71.642  0.50 29.11    -0.325 OA
BRANCH   9  16
HETATM   16  C1  SIA C   4      68.698  83.228  70.503  0.50 24.27     0.240 C 
HETATM   17  O1A SIA C   4      68.412  83.804  71.583  0.50 28.17    -0.644 OA
HETATM   18  O1B SIA C   4      69.120  83.849  69.519  0.50 21.53    -0.644 OA
ENDBRANCH   9  16
BRANCH  12  19
HETATM   19  N5  SIA C   4      72.604  80.963  70.709  0.50 25.74    -0.235 NA
HETATM   20  C10 SIA C   4      73.577  80.062  70.807  0.50 23.32     0.252 C 
HETATM   21  O10 SIA C   4      73.244  78.857  70.865  0.50 26.30    -0.271 OA
HETATM   22  C11 SIA C   4      74.964  80.718  70.805  0.50 20.27     0.100 C 
ENDBRANCH  12  19
BRANCH  14  23
HETATM   23  C7  SIA C   4      70.797  80.615  73.155  0.50 24.96     0.214 C 
HETATM   24  O7  SIA C   4      69.615  80.046  73.713  0.50 23.41    -0.218 OA
BRANCH  23  25
HETATM   25  C8  SIA C   4      71.376  81.707  74.052  0.50 24.91     0.218 C 
HETATM   26  O8  SIA C   4      71.294  82.974  73.418  0.50 25.01    -0.218 OA
BRANCH  25  27
HETATM   27  C9  SIA C   4      72.826  81.411  74.400  0.50 23.13     0.218 C 
HETATM   28  O9  SIA C   4      73.119  80.037  74.301  0.50 25.78    -0.218 OA
ENDBRANCH  25  27
ENDBRANCH  23  25
ENDBRANCH  14  23
ENDBRANCH   8   9
ENDBRANCH   3   8
BRANCH   5  29
HETATM   29  C6  GAL C   1      64.143  79.407  73.760  0.50 27.50     0.214 C 
HETATM   30  O6  GAL C   1      64.937  79.559  74.918  0.50 28.29    -0.218 OA
ENDBRANCH   5  29
BRANCH   4  31
HETATM   31  O4  GAL C   1      64.878  81.598  72.169  0.50 28.56    -0.327 OA
BRANCH  31  32
HETATM   32  C1  NGA C   2      65.236  82.719  72.987  0.50 27.07     0.262 C 
HETATM   33  C2  NGA C   2      64.080  83.030  73.957  0.50 26.50     0.192 C 
HETATM   34  C3  NGA C   2      64.475  84.153  74.905  0.50 25.00     0.178 C 
HETATM   35  C4  NGA C   2      65.787  83.782  75.618  0.50 27.34     0.211 C 
HETATM   36  C5  NGA C   2      66.828  83.477  74.549  0.50 25.92     0.184 C 
HETATM   37  O4  NGA C   2      65.522  82.628  76.394  0.50 27.11    -0.218 OA
HETATM   38  O5  NGA C   2      66.390  82.363  73.769  0.50 26.89    -0.327 OA
BRANCH  33  39
HETATM   39  N2  NGA C   2      62.924  83.336  73.160  0.50 29.00    -0.232 NA
HETATM   40  C7  NGA C   2      61.727  82.759  73.278  0.50 29.40     0.252 C 
HETATM   41  C8  NGA C   2      60.737  83.277  72.214  0.50 27.66     0.100 C 
HETATM   42  O7  NGA C   2      61.589  81.894  74.170  0.50 31.71    -0.271 OA
ENDBRANCH  33  39
BRANCH  34  43
HETATM   43  O3  NGA C   2      63.472  84.286  75.927  0.50 23.22    -0.327 OA
BRANCH  43  44
HETATM   44  C1  GAL C   3      63.159  85.651  76.201  0.50 18.08     0.270 C 
HETATM   45  C2  GAL C   3      61.697  85.882  76.549  0.50 14.48     0.241 C 
HETATM   46  O2  GAL C   3      60.873  85.331  75.543  0.50 18.21    -0.215 OA
HETATM   47  C3  GAL C   3      61.407  87.343  76.824  0.50 13.31     0.220 C 
HETATM   48  C4  GAL C   3      62.460  87.932  77.761  0.50 13.24     0.215 C 
HETATM   49  O3  GAL C   3      60.095  87.588  77.335  0.50 14.16    -0.218 OA
HETATM   50  C5  GAL C   3      63.889  87.570  77.348  0.50 14.42     0.184 C 
HETATM   51  O4  GAL C   3      62.274  87.457  79.072  0.50 12.87    -0.218 OA
HETATM   52  O5  GAL C   3      63.983  86.141  77.273  0.50 15.88    -0.326 OA
BRANCH  50  53
HETATM   53  C6  GAL C   3      64.871  87.993  78.435  0.50 14.56     0.215 C 
HETATM   54  O6  GAL C   3      66.202  87.736  78.098  0.50 15.78    -0.218 OA
ENDBRANCH  50  53
ENDBRANCH  43  44
ENDBRANCH  34  43
BRANCH  36  55
HETATM   55  C6  NGA C   2      68.192  83.245  75.153  0.50 26.88     0.215 C 
HETATM   56  O6  NGA C   2      68.794  84.493  75.450  0.50 27.96    -0.218 OA
ENDBRANCH  36  55
ENDBRANCH  31  32
ENDBRANCH   4  31
TORSDOF 15
ENDMDL
MODEL 8
REMARK VINA RESULT:      -6.0      3.931     10.518
REMARK  15 active torsions:
REMARK  status: ('A' for Active; 'I' for Inactive)
REMARK    1  A    between atoms: C3_3  and  O3_8 
REMARK    2  A    between atoms: C4_4  and  O4_9 
REMARK    3  A    between atoms: C5_5  and  C6_6 
REMARK    4  A    between atoms: O3_8  and  C2_38 
REMARK    5  A    between atoms: O4_9  and  C1_12 
REMARK    6  A    between atoms: C2_13  and  N2_20 
REMARK    7  A    between atoms: C3_14  and  O3_21 
REMARK    8  A    between atoms: C5_16  and  C6_17 
REMARK       I    between atoms: C7_18  and  N2_20 
REMARK    9  A    between atoms: O3_21  and  C1_26 
REMARK   10  A    between atoms: C5_30  and  C6_31 
REMARK   11  A    between atoms: C1_37  and  C2_38 
REMARK   12  A    between atoms: C5_41  and  N5_48 
REMARK   13  A    between atoms: C6_42  and  C7_43 
REMARK   14  A    between atoms: C7_43  and  C8_44 
REMARK   15  A    between atoms: C8_44  and  C9_45 
REMARK       I    between atoms: C10_46  and  N5_48 
ROOT
HETATM    1  C1  GAL C   1      66.530  87.066  76.293  0.50 31.77     0.178 C 
HETATM    2  C2  GAL C   1      66.040  86.260  75.106  0.50 31.15     0.211 C 
HETATM    3  C3  GAL C   1      66.091  84.755  75.372  0.50 28.21     0.181 C 
HETATM    4  C4  GAL C   1      67.489  84.368  75.843  0.50 27.04     0.177 C 
HETATM    5  C5  GAL C   1      67.907  85.198  77.050  0.50 27.54     0.178 C 
HETATM    6  O2  GAL C   1      64.713  86.623  74.766  0.50 33.53    -0.218 OA
HETATM    7  O5  GAL C   1      67.772  86.588  76.785  0.50 31.32    -0.349 OA
ENDROOT
BRANCH   3   8
HETATM    8  O3  GAL C   1      65.707  84.096  74.185  0.50 27.69    -0.324 OA
BRANCH   8   9
HETATM    9  C2  SIA C   4      64.788  83.012  74.204  0.50 28.46     0.271 C 
HETATM   10  C3  SIA C   4      65.511  81.696  74.357  0.50 27.81     0.103 C 
HETATM   11  C4  SIA C   4      64.659  80.481  74.097  0.50 26.33     0.182 C 
HETATM   12  C5  SIA C   4      63.661  80.589  72.955  0.50 25.92     0.166 C 
HETATM   13  O4  SIA C   4      65.437  79.314  73.968  0.50 27.44    -0.221 OA
HETATM   14  C6  SIA C   4      63.009  81.963  72.934  0.50 24.60     0.176 C 
HETATM   15  O6  SIA C   4      63.958  83.012  73.043  0.50 29.11    -0.325 OA
BRANCH   9  16
HETATM   16  C1  SIA C   4      63.893  83.266  75.405  0.50 24.27     0.240 C 
HETATM   17  O1A SIA C   4      64.167  82.640  76.460  0.50 28.17    -0.644 OA
HETATM   18  O1B SIA C   4      62.931  84.040  75.330  0.50 21.53    -0.644 OA
ENDBRANCH   9  16
BRANCH  12  19
HETATM   19  N5  SIA C   4      62.656  79.546  73.155  0.50 25.74    -0.235 NA
HETATM   20  C10 SIA C   4      62.468  78.561  72.281  0.50 23.32     0.252 C 
HETATM   21  O10 SIA C   4      63.195  78.548  71.262  0.50 26.30    -0.271 OA
HETATM   22  C11 SIA C   4      61.368  77.594  72.738  0.50 20.27     0.100 C 
ENDBRANCH  12  19
BRANCH  14  23
HETATM   23  C7  SIA C   4      62.220  82.163  71.629  0.50 24.96     0.214 C 
HETATM   24  O7  SIA C   4      62.581  83.428  71.080  0.50 23.41    -0.218 OA
BRANCH  23  25
HETATM   25  C8  SIA C   4      60.733  82.098  71.968  0.50 24.91     0.218 C 
HETATM   26  O8  SIA C   4      59.945  82.480  70.852  0.50 25.01    -0.218 OA
BRANCH  25  27
HETATM   27  C9  SIA C   4      60.405  82.998  73.148  0.50 23.13     0.218 C 
HETATM   28  O9  SIA C   4      59.403  82.443  73.969  0.50 25.78    -0.218 OA
ENDBRANCH  25  27
ENDBRANCH  23  25
ENDBRANCH  14  23
ENDBRANCH   8   9
ENDBRANCH   3   8
BRANCH   5  29
HETATM   29  C6  GAL C   1      69.372  84.939  77.410  0.50 27.50     0.214 C 
HETATM   30  O6  GAL C   1      69.532  83.731  78.125  0.50 28.29    -0.218 OA
ENDBRANCH   5  29
BRANCH   4  31
HETATM   31  O4  GAL C   1      68.434  84.491  74.804  0.50 28.56    -0.327 OA
BRANCH  31  32
HETATM   32  C1  NGA C   2      69.039  83.291  74.305  0.50 27.07     0.262 C 
HETATM   33  C2  NGA C   2      69.413  83.487  72.824  0.50 26.50     0.192 C 
HETATM   34  C3  NGA C   2      70.148  82.263  72.299  0.50 25.00     0.178 C 
HETATM   35  C4  NGA C   2      71.360  81.970  73.200  0.50 27.34     0.211 C 
HETATM   36  C5  NGA C   2      70.853  81.824  74.629  0.50 25.92     0.184 C 
HETATM   37  O4  NGA C   2      72.231  83.081  73.095  0.50 27.11    -0.218 OA
HETATM   38  O5  NGA C   2      70.251  83.052  75.043  0.50 26.89    -0.327 OA
BRANCH  33  39
HETATM   39  N2  NGA C   2      68.198  83.773  72.111  0.50 29.00    -0.232 NA
HETATM   40  C7  NGA C   2      67.983  84.842  71.342  0.50 29.40     0.252 C 
HETATM   41  C8  NGA C   2      66.543  84.866  70.788  0.50 27.66     0.100 C 
HETATM   42  O7  NGA C   2      68.923  85.655  71.211  0.50 31.71    -0.271 OA
ENDBRANCH  33  39
BRANCH  34  43
HETATM   43  O3  NGA C   2      70.667  82.546  70.988  0.50 23.22    -0.327 OA
BRANCH  43  44
HETATM   44  C1  GAL C   3      70.381  81.502  70.057  0.50 18.08     0.270 C 
HETATM   45  C2  GAL C   3      71.569  80.597  69.777  0.50 14.48     0.241 C 
HETATM   46  O2  GAL C   3      72.683  81.373  69.390  0.50 18.21    -0.215 OA
HETATM   47  C3  GAL C   3      71.225  79.509  68.779  0.50 13.31     0.220 C 
HETATM   48  C4  GAL C   3      69.899  78.846  69.145  0.50 13.24     0.215 C 
HETATM   49  O3  GAL C   3      72.246  78.522  68.621  0.50 14.16    -0.218 OA
HETATM   50  C5  GAL C   3      68.801  79.859  69.478  0.50 14.42     0.184 C 
HETATM   51  O4  GAL C   3      70.055  78.019  70.273  0.50 12.87    -0.218 OA
HETATM   52  O5  GAL C   3      69.281  80.707  70.531  0.50 15.88    -0.326 OA
BRANCH  50  53
HETATM   53  C6  GAL C   3      67.581  79.144  70.046  0.50 14.56     0.215 C 
HETATM   54  O6  GAL C   3      67.236  79.586  71.326  0.50 15.78    -0.218 OA
ENDBRANCH  50  53
ENDBRANCH  43  44
ENDBRANCH  34  43
BRANCH  36  55
HETATM   55  C6  NGA C   2      71.954  81.389  75.566  0.50 26.88     0.215 C 
HETATM   56  O6  NGA C   2      71.466  81.387  76.896  0.50 27.96    -0.218 OA
ENDBRANCH  36  55
ENDBRANCH  31  32
ENDBRANCH   4  31
TORSDOF 15
ENDMDL
MODEL 9
REMARK VINA RESULT:      -6.0      5.490      9.603
REMARK  15 active torsions:
REMARK  status: ('A' for Active; 'I' for Inactive)
REMARK    1  A    between atoms: C3_3  and  O3_8 
REMARK    2  A    between atoms: C4_4  and  O4_9 
REMARK    3  A    between atoms: C5_5  and  C6_6 
REMARK    4  A    between atoms: O3_8  and  C2_38 
REMARK    5  A    between atoms: O4_9  and  C1_12 
REMARK    6  A    between atoms: C2_13  and  N2_20 
REMARK    7  A    between atoms: C3_14  and  O3_21 
REMARK    8  A    between atoms: C5_16  and  C6_17 
REMARK       I    between atoms: C7_18  and  N2_20 
REMARK    9  A    between atoms: O3_21  and  C1_26 
REMARK   10  A    between atoms: C5_30  and  C6_31 
REMARK   11  A    between atoms: C1_37  and  C2_38 
REMARK   12  A    between atoms: C5_41  and  N5_48 
REMARK   13  A    between atoms: C6_42  and  C7_43 
REMARK   14  A    between atoms: C7_43  and  C8_44 
REMARK   15  A    between atoms: C8_44  and  C9_45 
REMARK       I    between atoms: C10_46  and  N5_48 
ROOT
HETATM    1  C1  GAL C   1      66.214  79.851  68.815  0.50 31.77     0.178 C 
HETATM    2  C2  GAL C   1      66.983  81.040  69.358  0.50 31.15     0.211 C 
HETATM    3  C3  GAL C   1      67.454  80.812  70.796  0.50 28.21     0.181 C 
HETATM    4  C4  GAL C   1      66.268  80.400  71.661  0.50 27.04     0.177 C 
HETATM    5  C5  GAL C   1      65.558  79.188  71.072  0.50 27.54     0.178 C 
HETATM    6  O2  GAL C   1      68.108  81.324  68.545  0.50 33.53    -0.218 OA
HETATM    7  O5  GAL C   1      65.205  79.415  69.713  0.50 31.32    -0.349 OA
ENDROOT
BRANCH   3   8
HETATM    8  O3  GAL C   1      68.072  82.001  71.238  0.50 27.69    -0.324 OA
BRANCH   8   9
HETATM    9  C2  SIA C   4      69.334  81.979  71.894  0.50 28.46     0.271 C 
HETATM   10  C3  SIA C   4      69.671  80.587  72.366  0.50 27.81     0.103 C 
HETATM   11  C4  SIA C   4      70.836  80.515  73.318  0.50 26.33     0.182 C 
HETATM   12  C5  SIA C   4      70.940  81.633  74.343  0.50 25.92     0.166 C 
HETATM   13  O4  SIA C   4      70.924  79.256  73.945  0.50 27.44    -0.221 OA
HETATM   14  C6  SIA C   4      70.580  82.973  73.721  0.50 24.60     0.176 C 
HETATM   15  O6  SIA C   4      69.376  82.914  72.972  0.50 29.11    -0.325 OA
BRANCH   9  16
HETATM   16  C1  SIA C   4      70.336  82.441  70.850  0.50 24.27     0.240 C 
HETATM   17  O1A SIA C   4      71.165  81.589  70.443  0.50 28.17    -0.644 OA
HETATM   18  O1B SIA C   4      70.340  83.609  70.442  0.50 21.53    -0.644 OA
ENDBRANCH   9  16
BRANCH  12  19
HETATM   19  N5  SIA C   4      72.317  81.648  74.835  0.50 25.74    -0.235 NA
HETATM   20  C10 SIA C   4      72.629  81.329  76.088  0.50 23.32     0.252 C 
HETATM   21  O10 SIA C   4      71.692  81.005  76.851  0.50 26.30    -0.271 OA
HETATM   22  C11 SIA C   4      74.141  81.409  76.337  0.50 20.27     0.100 C 
ENDBRANCH  12  19
BRANCH  14  23
HETATM   23  C7  SIA C   4      70.414  84.044  74.812  0.50 24.96     0.214 C 
HETATM   24  O7  SIA C   4      71.711  84.422  75.266  0.50 23.41    -0.218 OA
BRANCH  23  25
HETATM   25  C8  SIA C   4      69.576  83.439  75.935  0.50 24.91     0.218 C 
HETATM   26  O8  SIA C   4      68.197  83.714  75.739  0.50 25.01    -0.218 OA
BRANCH  25  27
HETATM   27  C9  SIA C   4      70.010  83.979  77.288  0.50 23.13     0.218 C 
HETATM   28  O9  SIA C   4      69.485  83.216  78.350  0.50 25.78    -0.218 OA
ENDBRANCH  25  27
ENDBRANCH  23  25
ENDBRANCH  14  23
ENDBRANCH   8   9
ENDBRANCH   3   8
BRANCH   5  29
HETATM   29  C6  GAL C   1      64.266  78.887  71.836  0.50 27.50     0.214 C 
HETATM   30  O6  GAL C   1      64.527  78.333  73.109  0.50 28.29    -0.218 OA
ENDBRANCH   5  29
BRANCH   4  31
HETATM   31  O4  GAL C   1      65.365  81.468  71.839  0.50 28.56    -0.327 OA
BRANCH  31  32
HETATM   32  C1  NGA C   2      65.347  82.123  73.114  0.50 27.07     0.262 C 
HETATM   33  C2  NGA C   2      64.952  83.599  72.922  0.50 26.50     0.192 C 
HETATM   34  C3  NGA C   2      64.828  84.292  74.271  0.50 25.00     0.178 C 
HETATM   35  C4  NGA C   2      63.845  83.508  75.158  0.50 27.34     0.211 C 
HETATM   36  C5  NGA C   2      64.339  82.070  75.242  0.50 25.92     0.184 C 
HETATM   37  O4  NGA C   2      62.582  83.562  74.522  0.50 27.11    -0.218 OA
HETATM   38  O5  NGA C   2      64.344  81.497  73.933  0.50 26.89    -0.327 OA
BRANCH  33  39
HETATM   39  N2  NGA C   2      65.937  84.197  72.063  0.50 29.00    -0.232 NA
HETATM   40  C7  NGA C   2      65.678  84.966  71.004  0.50 29.40     0.252 C 
HETATM   41  C8  NGA C   2      66.971  85.377  70.267  0.50 27.66     0.100 C 
HETATM   42  O7  NGA C   2      64.480  85.207  70.747  0.50 31.71    -0.271 OA
ENDBRANCH  33  39
BRANCH  34  43
HETATM   43  O3  NGA C   2      64.262  85.600  74.083  0.50 23.22    -0.327 OA
BRANCH  43  44
HETATM   44  C1  GAL C   3      64.980  86.607  74.795  0.50 18.08     0.270 C 
HETATM   45  C2  GAL C   3      64.545  86.755  76.244  0.50 14.48     0.241 C 
HETATM   46  O2  GAL C   3      63.147  86.944  76.307  0.50 18.21    -0.215 OA
HETATM   47  C3  GAL C   3      65.327  87.837  76.960  0.50 13.31     0.220 C 
HETATM   48  C4  GAL C   3      66.821  87.694  76.680  0.50 13.24     0.215 C 
HETATM   49  O3  GAL C   3      65.088  87.891  78.368  0.50 14.16    -0.218 OA
HETATM   50  C5  GAL C   3      67.128  87.477  75.196  0.50 14.42     0.184 C 
HETATM   51  O4  GAL C   3      67.350  86.593  77.378  0.50 12.87    -0.218 OA
HETATM   52  O5  GAL C   3      66.390  86.330  74.751  0.50 15.88    -0.326 OA
BRANCH  50  53
HETATM   53  C6  GAL C   3      68.599  87.120  75.011  0.50 14.56     0.215 C 
HETATM   54  O6  GAL C   3      69.459  88.182  75.302  0.50 15.78    -0.218 OA
ENDBRANCH  50  53
ENDBRANCH  43  44
ENDBRANCH  34  43
BRANCH  36  55
HETATM   55  C6  NGA C   2      63.517  81.257  76.213  0.50 26.88     0.215 C 
HETATM   56  O6  NGA C   2      64.239  80.095  76.583  0.50 27.96    -0.218 OA
ENDBRANCH  36  55
ENDBRANCH  31  32
ENDBRANCH   4  31
TORSDOF 15
ENDMDL
