MODEL 1
REMARK VINA RESULT:      -5.8      0.000      0.000
REMARK  15 active torsions:
REMARK  status: ('A' for Active; 'I' for Inactive)
REMARK    1  A    between atoms: C3_3  and  O3_8 
REMARK    2  A    between atoms: C4_4  and  O4_9 
REMARK    3  A    between atoms: C5_5  and  C6_6 
REMARK    4  A    between atoms: O3_8  and  C2_38 
REMARK    5  A    between atoms: O4_9  and  C1_12 
REMARK    6  A    between atoms: C2_13  and  N2_20 
REMARK    7  A    between atoms: C3_14  and  O3_21 
REMARK    8  A    between atoms: C5_16  and  C6_17 
REMARK       I    between atoms: C7_18  and  N2_20 
REMARK    9  A    between atoms: O3_21  and  C1_26 
REMARK   10  A    between atoms: C5_30  and  C6_31 
REMARK   11  A    between atoms: C1_37  and  C2_38 
REMARK   12  A    between atoms: C5_41  and  N5_48 
REMARK   13  A    between atoms: C6_42  and  C7_43 
REMARK   14  A    between atoms: C7_43  and  C8_44 
REMARK   15  A    between atoms: C8_44  and  C9_45 
REMARK       I    between atoms: C10_46  and  N5_48 
ROOT
HETATM    1  C1  GAL A   1     266.089 242.777 197.107  0.50 30.86     0.178 C 
HETATM    2  C2  GAL A   1     265.950 243.108 195.619  0.50 31.03     0.211 C 
HETATM    3  C3  GAL A   1     266.584 244.435 195.252  0.50 28.77     0.181 C 
HETATM    4  C4  GAL A   1     266.149 245.537 196.215  0.50 28.47     0.177 C 
HETATM    5  C5  GAL A   1     266.191 245.096 197.654  0.50 29.35     0.178 C 
HETATM    6  O2  GAL A   1     266.472 242.015 194.886  0.50 30.41    -0.218 OA
HETATM    7  O5  GAL A   1     265.527 243.853 197.859  0.50 30.35    -0.349 OA
ENDROOT
BRANCH   3   8
HETATM    8  O3  GAL A   1     266.144 244.866 193.978  0.50 28.34    -0.324 OA
BRANCH   8   9
HETATM    9  C2  SIA A   4     267.056 245.249 192.971  0.50 28.62     0.271 C 
HETATM   10  O6  SIA A   4     268.382 245.453 193.412  0.50 31.74    -0.325 OA
HETATM   11  C6  SIA A   4     269.336 245.889 192.432  0.50 34.04     0.176 C 
HETATM   12  C5  SIA A   4     269.391 244.980 191.219  0.50 33.06     0.166 C 
HETATM   13  C4  SIA A   4     267.965 244.840 190.685  0.50 31.88     0.182 C 
HETATM   14  C3  SIA A   4     267.098 244.257 191.804  0.50 29.71     0.103 C 
HETATM   15  O4  SIA A   4     267.950 243.995 189.562  0.50 38.09    -0.221 OA
BRANCH   9  16
HETATM   16  C1  SIA A   4     266.498 246.549 192.388  0.50 27.73     0.240 C 
HETATM   17  O1A SIA A   4     267.064 247.624 192.664  0.50 31.28    -0.644 OA
HETATM   18  O1B SIA A   4     265.481 246.405 191.676  0.50 17.68    -0.644 OA
ENDBRANCH   9  16
BRANCH  11  19
HETATM   19  C7  SIA A   4     270.683 246.004 193.144  0.50 33.71     0.214 C 
HETATM   20  O7  SIA A   4     270.697 245.229 194.339  0.50 32.14    -0.218 OA
BRANCH  19  21
HETATM   21  C8  SIA A   4     270.910 247.468 193.536  0.50 34.22     0.218 C 
HETATM   22  O8  SIA A   4     270.187 247.817 194.698  0.50 31.83    -0.218 OA
BRANCH  21  23
HETATM   23  C9  SIA A   4     270.501 248.333 192.349  0.50 33.50     0.218 C 
HETATM   24  O9  SIA A   4     271.668 248.728 191.676  0.50 28.00    -0.218 OA
ENDBRANCH  21  23
ENDBRANCH  19  21
ENDBRANCH  11  19
BRANCH  12  25
HETATM   25  N5  SIA A   4     270.295 245.399 190.174  0.50 34.22    -0.235 NA
HETATM   26  C10 SIA A   4     271.302 244.661 189.703  0.50 33.32     0.252 C 
HETATM   27  C11 SIA A   4     272.127 245.383 188.609  0.50 19.88     0.100 C 
HETATM   28  O10 SIA A   4     271.463 243.530 190.221  0.50 29.43    -0.271 OA
ENDBRANCH  12  25
ENDBRANCH   8   9
ENDBRANCH   3   8
BRANCH   5  29
HETATM   29  C6  GAL A   1     265.473 246.154 198.500  0.50 30.53     0.214 C 
HETATM   30  O6  GAL A   1     264.738 245.532 199.529  0.50 33.07    -0.218 OA
ENDBRANCH   5  29
BRANCH   4  31
HETATM   31  O4  GAL A   1     264.784 245.849 195.992  0.50 31.21    -0.327 OA
BRANCH  31  32
HETATM   32  C1  NGA A   2     264.557 246.929 195.098  0.50 28.26     0.262 C 
HETATM   33  C2  NGA A   2     263.028 246.956 194.958  0.50 24.34     0.192 C 
HETATM   34  C3  NGA A   2     262.637 248.122 194.112  0.50 23.13     0.178 C 
HETATM   35  C4  NGA A   2     263.227 249.442 194.628  0.50 23.45     0.211 C 
HETATM   36  C5  NGA A   2     264.724 249.252 194.702  0.50 23.37     0.184 C 
HETATM   37  O4  NGA A   2     262.654 249.719 195.883  0.50 26.44    -0.218 OA
HETATM   38  O5  NGA A   2     265.032 248.183 195.592  0.50 27.92    -0.327 OA
BRANCH  33  39
HETATM   39  N2  NGA A   2     262.627 245.631 194.541  0.50 23.90    -0.232 NA
HETATM   40  C7  NGA A   2     261.727 244.950 195.267  0.50 22.89     0.252 C 
HETATM   41  C8  NGA A   2     261.457 243.531 194.755  0.50 21.65     0.100 C 
HETATM   42  O7  NGA A   2     261.238 245.521 196.264  0.50 27.34    -0.271 OA
ENDBRANCH  33  39
BRANCH  34  43
HETATM   43  O3  NGA A   2     261.217 248.268 194.129  0.50 19.58    -0.327 OA
BRANCH  43  44
HETATM   44  C1  GAL A   3     260.710 247.648 192.952  0.50 14.41     0.270 C 
HETATM   45  C2  GAL A   3     259.207 247.532 193.089  0.50 11.27     0.241 C 
HETATM   46  O2  GAL A   3     258.907 246.791 194.254  0.50 11.99    -0.215 OA
HETATM   47  C3  GAL A   3     258.620 246.865 191.857  0.50  9.34     0.220 C 
HETATM   48  O3  GAL A   3     257.211 246.915 191.921  0.50 11.52    -0.218 OA
HETATM   49  C4  GAL A   3     259.185 247.473 190.577  0.50 10.13     0.215 C 
HETATM   50  O4  GAL A   3     258.683 248.777 190.464  0.50  7.87    -0.218 OA
HETATM   51  C5  GAL A   3     260.708 247.640 190.606  0.50 13.15     0.184 C 
HETATM   52  O5  GAL A   3     261.094 248.393 191.786  0.50 13.62    -0.326 OA
BRANCH  51  53
HETATM   53  C6  GAL A   3     261.275 248.409 189.418  0.50 18.07     0.215 C 
HETATM   54  O6  GAL A   3     261.936 249.590 189.822  0.50 13.12    -0.218 OA
ENDBRANCH  51  53
ENDBRANCH  43  44
ENDBRANCH  34  43
BRANCH  36  55
HETATM   55  C6  NGA A   2     265.539 250.500 194.919  0.50 20.58     0.215 C 
HETATM   56  O6  NGA A   2     265.920 250.540 196.275  0.50 30.49    -0.218 OA
ENDBRANCH  36  55
ENDBRANCH  31  32
ENDBRANCH   4  31
TORSDOF 15
ENDMDL
MODEL 2
REMARK VINA RESULT:      -5.8     11.998     17.116
REMARK  15 active torsions:
REMARK  status: ('A' for Active; 'I' for Inactive)
REMARK    1  A    between atoms: C3_3  and  O3_8 
REMARK    2  A    between atoms: C4_4  and  O4_9 
REMARK    3  A    between atoms: C5_5  and  C6_6 
REMARK    4  A    between atoms: O3_8  and  C2_38 
REMARK    5  A    between atoms: O4_9  and  C1_12 
REMARK    6  A    between atoms: C2_13  and  N2_20 
REMARK    7  A    between atoms: C3_14  and  O3_21 
REMARK    8  A    between atoms: C5_16  and  C6_17 
REMARK       I    between atoms: C7_18  and  N2_20 
REMARK    9  A    between atoms: O3_21  and  C1_26 
REMARK   10  A    between atoms: C5_30  and  C6_31 
REMARK   11  A    between atoms: C1_37  and  C2_38 
REMARK   12  A    between atoms: C5_41  and  N5_48 
REMARK   13  A    between atoms: C6_42  and  C7_43 
REMARK   14  A    between atoms: C7_43  and  C8_44 
REMARK   15  A    between atoms: C8_44  and  C9_45 
REMARK       I    between atoms: C10_46  and  N5_48 
ROOT
HETATM    1  C1  GAL A   1     271.008 235.849 201.810  0.50 30.86     0.178 C 
HETATM    2  C2  GAL A   1     272.109 236.402 200.902  0.50 31.03     0.211 C 
HETATM    3  C3  GAL A   1     271.854 236.123 199.434  0.50 28.77     0.181 C 
HETATM    4  C4  GAL A   1     271.489 234.658 199.208  0.50 28.47     0.177 C 
HETATM    5  C5  GAL A   1     270.495 234.148 200.218  0.50 29.35     0.178 C 
HETATM    6  O2  GAL A   1     272.254 237.780 201.194  0.50 30.41    -0.218 OA
HETATM    7  O5  GAL A   1     270.879 234.450 201.555  0.50 30.35    -0.349 OA
ENDROOT
BRANCH   3   8
HETATM    8  O3  GAL A   1     273.028 236.330 198.673  0.50 28.34    -0.324 OA
BRANCH   8   9
HETATM    9  C2  SIA A   4     273.128 237.383 197.738  0.50 28.62     0.271 C 
HETATM   10  O6  SIA A   4     272.455 238.570 198.101  0.50 31.74    -0.325 OA
HETATM   11  C6  SIA A   4     272.489 239.654 197.160  0.50 34.04     0.176 C 
HETATM   12  C5  SIA A   4     273.900 240.033 196.749  0.50 33.06     0.166 C 
HETATM   13  C4  SIA A   4     274.594 238.760 196.263  0.50 31.88     0.182 C 
HETATM   14  C3  SIA A   4     274.580 237.748 197.412  0.50 29.71     0.103 C 
HETATM   15  O4  SIA A   4     275.915 239.047 195.879  0.50 38.09    -0.221 OA
BRANCH   9  16
HETATM   16  C1  SIA A   4     272.539 236.832 196.437  0.50 27.73     0.240 C 
HETATM   17  O1A SIA A   4     271.378 237.153 196.118  0.50 31.28    -0.644 OA
HETATM   18  O1B SIA A   4     273.302 236.071 195.803  0.50 17.68    -0.644 OA
ENDBRANCH   9  16
BRANCH  11  19
HETATM   19  C7  SIA A   4     271.727 240.816 197.795  0.50 33.71     0.214 C 
HETATM   20  O7  SIA A   4     271.013 240.389 198.951  0.50 32.14    -0.218 OA
BRANCH  19  21
HETATM   21  C8  SIA A   4     270.703 241.345 196.784  0.50 34.22     0.218 C 
HETATM   22  O8  SIA A   4     270.991 242.672 196.394  0.50 31.83    -0.218 OA
BRANCH  21  23
HETATM   23  C9  SIA A   4     269.324 241.244 197.425  0.50 33.50     0.218 C 
HETATM   24  O9  SIA A   4     268.831 242.545 197.603  0.50 28.00    -0.218 OA
ENDBRANCH  21  23
ENDBRANCH  19  21
ENDBRANCH  11  19
BRANCH  12  25
HETATM   25  N5  SIA A   4     273.993 241.083 195.762  0.50 34.22    -0.235 NA
HETATM   26  C10 SIA A   4     274.524 242.286 195.985  0.50 33.32     0.252 C 
HETATM   27  C11 SIA A   4     274.456 243.221 194.752  0.50 19.88     0.100 C 
HETATM   28  O10 SIA A   4     274.961 242.505 197.140  0.50 29.43    -0.271 OA
ENDBRANCH  12  25
ENDBRANCH   8   9
ENDBRANCH   3   8
BRANCH   5  29
HETATM   29  C6  GAL A   1     270.418 232.623 200.086  0.50 30.53     0.214 C 
HETATM   30  O6  GAL A   1     269.670 232.274 198.944  0.50 33.07    -0.218 OA
ENDBRANCH   5  29
BRANCH   4  31
HETATM   31  O4  GAL A   1     272.633 233.848 199.415  0.50 31.21    -0.327 OA
BRANCH  31  32
HETATM   32  C1  NGA A   2     273.172 233.264 198.238  0.50 28.26     0.262 C 
HETATM   33  C2  NGA A   2     273.531 231.839 198.682  0.50 24.34     0.192 C 
HETATM   34  C3  NGA A   2     274.024 231.070 197.501  0.50 23.13     0.178 C 
HETATM   35  C4  NGA A   2     273.040 231.114 196.323  0.50 23.45     0.211 C 
HETATM   36  C5  NGA A   2     272.799 232.572 196.010  0.50 23.37     0.184 C 
HETATM   37  O4  NGA A   2     271.866 230.441 196.706  0.50 26.44    -0.218 OA
HETATM   38  O5  NGA A   2     272.247 233.227 197.149  0.50 27.92    -0.327 OA
BRANCH  33  39
HETATM   39  N2  NGA A   2     274.394 231.969 199.834  0.50 23.90    -0.232 NA
HETATM   40  C7  NGA A   2     274.108 231.296 200.959  0.50 22.89     0.252 C 
HETATM   41  C8  NGA A   2     275.059 231.591 202.123  0.50 21.65     0.100 C 
HETATM   42  O7  NGA A   2     273.112 230.542 200.943  0.50 27.34    -0.271 OA
ENDBRANCH  33  39
BRANCH  34  43
HETATM   43  O3  NGA A   2     274.182 229.697 197.858  0.50 19.58    -0.327 OA
BRANCH  43  44
HETATM   44  C1  GAL A   3     275.514 229.530 198.330  0.50 14.41     0.270 C 
HETATM   45  C2  GAL A   3     275.794 228.046 198.438  0.50 11.27     0.241 C 
HETATM   46  O2  GAL A   3     274.844 227.460 199.304  0.50 11.99    -0.215 OA
HETATM   47  C3  GAL A   3     277.206 227.815 198.950  0.50  9.34     0.220 C 
HETATM   48  O3  GAL A   3     277.511 226.439 198.886  0.50 11.52    -0.218 OA
HETATM   49  C4  GAL A   3     278.212 228.690 198.207  0.50 10.13     0.215 C 
HETATM   50  O4  GAL A   3     278.303 228.215 196.891  0.50  7.87    -0.218 OA
HETATM   51  C5  GAL A   3     277.762 230.148 198.068  0.50 13.15     0.184 C 
HETATM   52  O5  GAL A   3     276.443 230.196 197.462  0.50 13.62    -0.326 OA
BRANCH  51  53
HETATM   53  C6  GAL A   3     278.661 230.996 197.176  0.50 18.07     0.215 C 
HETATM   54  O6  GAL A   3     278.055 232.226 196.835  0.50 13.12    -0.218 OA
ENDBRANCH  51  53
ENDBRANCH  43  44
ENDBRANCH  34  43
BRANCH  36  55
HETATM   55  C6  NGA A   2     272.084 232.860 194.716  0.50 20.58     0.215 C 
HETATM   56  O6  NGA A   2     272.754 232.170 193.686  0.50 30.49    -0.218 OA
ENDBRANCH  36  55
ENDBRANCH  31  32
ENDBRANCH   4  31
TORSDOF 15
ENDMDL
MODEL 3
REMARK VINA RESULT:      -5.7     13.631     19.109
REMARK  15 active torsions:
REMARK  status: ('A' for Active; 'I' for Inactive)
REMARK    1  A    between atoms: C3_3  and  O3_8 
REMARK    2  A    between atoms: C4_4  and  O4_9 
REMARK    3  A    between atoms: C5_5  and  C6_6 
REMARK    4  A    between atoms: O3_8  and  C2_38 
REMARK    5  A    between atoms: O4_9  and  C1_12 
REMARK    6  A    between atoms: C2_13  and  N2_20 
REMARK    7  A    between atoms: C3_14  and  O3_21 
REMARK    8  A    between atoms: C5_16  and  C6_17 
REMARK       I    between atoms: C7_18  and  N2_20 
REMARK    9  A    between atoms: O3_21  and  C1_26 
REMARK   10  A    between atoms: C5_30  and  C6_31 
REMARK   11  A    between atoms: C1_37  and  C2_38 
REMARK   12  A    between atoms: C5_41  and  N5_48 
REMARK   13  A    between atoms: C6_42  and  C7_43 
REMARK   14  A    between atoms: C7_43  and  C8_44 
REMARK   15  A    between atoms: C8_44  and  C9_45 
REMARK       I    between atoms: C10_46  and  N5_48 
ROOT
HETATM    1  C1  GAL A   1     280.203 250.819 198.201  0.50 30.86     0.178 C 
HETATM    2  C2  GAL A   1     279.039 251.780 197.946  0.50 31.03     0.211 C 
HETATM    3  C3  GAL A   1     279.369 252.841 196.916  0.50 28.77     0.181 C 
HETATM    4  C4  GAL A   1     280.712 253.501 197.216  0.50 28.47     0.177 C 
HETATM    5  C5  GAL A   1     281.777 252.501 197.581  0.50 29.35     0.178 C 
HETATM    6  O2  GAL A   1     277.907 251.000 197.608  0.50 30.41    -0.218 OA
HETATM    7  O5  GAL A   1     281.343 251.590 198.585  0.50 30.35    -0.349 OA
ENDROOT
BRANCH   3   8
HETATM    8  O3  GAL A   1     278.425 253.893 196.960  0.50 28.34    -0.324 OA
BRANCH   8   9
HETATM    9  C2  SIA A   4     277.812 254.388 195.789  0.50 28.62     0.271 C 
HETATM   10  O6  SIA A   4     278.648 254.434 194.651  0.50 31.74    -0.325 OA
HETATM   11  C6  SIA A   4     278.083 254.974 193.447  0.50 34.04     0.176 C 
HETATM   12  C5  SIA A   4     276.794 254.285 193.041  0.50 33.06     0.166 C 
HETATM   13  C4  SIA A   4     275.853 254.324 194.246  0.50 31.88     0.182 C 
HETATM   14  C3  SIA A   4     276.548 253.610 195.409  0.50 29.71     0.103 C 
HETATM   15  O4  SIA A   4     274.641 253.686 193.933  0.50 38.09    -0.221 OA
BRANCH   9  16
HETATM   16  C1  SIA A   4     277.338 255.800 196.140  0.50 27.73     0.240 C 
HETATM   17  O1A SIA A   4     276.148 255.972 196.467  0.50 31.28    -0.644 OA
HETATM   18  O1B SIA A   4     278.218 256.682 196.045  0.50 17.68    -0.644 OA
ENDBRANCH   9  16
BRANCH  11  19
HETATM   19  C7  SIA A   4     279.164 254.885 192.371  0.50 33.71     0.214 C 
HETATM   20  O7  SIA A   4     279.520 253.530 192.114  0.50 32.14    -0.218 OA
BRANCH  19  21
HETATM   21  C8  SIA A   4     280.419 255.609 192.871  0.50 34.22     0.218 C 
HETATM   22  O8  SIA A   4     280.781 256.676 192.019  0.50 31.83    -0.218 OA
BRANCH  21  23
HETATM   23  C9  SIA A   4     281.538 254.579 192.975  0.50 33.50     0.218 C 
HETATM   24  O9  SIA A   4     282.713 255.250 193.345  0.50 28.00    -0.218 OA
ENDBRANCH  21  23
ENDBRANCH  19  21
ENDBRANCH  11  19
BRANCH  12  25
HETATM   25  N5  SIA A   4     276.151 254.822 191.865  0.50 34.22    -0.235 NA
HETATM   26  C10 SIA A   4     276.026 254.172 190.707  0.50 33.32     0.252 C 
HETATM   27  C11 SIA A   4     275.323 255.010 189.610  0.50 19.88     0.100 C 
HETATM   28  O10 SIA A   4     276.514 253.018 190.652  0.50 29.43    -0.271 OA
ENDBRANCH  12  25
ENDBRANCH   8   9
ENDBRANCH   3   8
BRANCH   5  29
HETATM   29  C6  GAL A   1     282.983 253.268 198.136  0.50 30.53     0.214 C 
HETATM   30  O6  GAL A   1     283.812 253.696 197.079  0.50 33.07    -0.218 OA
ENDBRANCH   5  29
BRANCH   4  31
HETATM   31  O4  GAL A   1     280.593 254.312 198.371  0.50 31.21    -0.327 OA
BRANCH  31  32
HETATM   32  C1  NGA A   2     280.652 255.710 198.127  0.50 28.26     0.262 C 
HETATM   33  C2  NGA A   2     281.241 256.272 199.430  0.50 24.34     0.192 C 
HETATM   34  C3  NGA A   2     281.453 257.741 199.275  0.50 23.13     0.178 C 
HETATM   35  C4  NGA A   2     282.285 258.083 198.031  0.50 23.45     0.211 C 
HETATM   36  C5  NGA A   2     281.573 257.470 196.847  0.50 23.37     0.184 C 
HETATM   37  O4  NGA A   2     283.581 257.565 198.212  0.50 26.44    -0.218 OA
HETATM   38  O5  NGA A   2     281.483 256.057 197.018  0.50 27.92    -0.327 OA
BRANCH  33  39
HETATM   39  N2  NGA A   2     280.394 255.803 200.503  0.50 23.90    -0.232 NA
HETATM   40  C7  NGA A   2     280.939 255.170 201.553  0.50 22.89     0.252 C 
HETATM   41  C8  NGA A   2     279.918 254.658 202.574  0.50 21.65     0.100 C 
HETATM   42  O7  NGA A   2     282.183 255.052 201.573  0.50 27.34    -0.271 OA
ENDBRANCH  33  39
BRANCH  34  43
HETATM   43  O3  NGA A   2     282.171 258.241 200.403  0.50 19.58    -0.327 OA
BRANCH  43  44
HETATM   44  C1  GAL A   3     281.426 259.333 200.933  0.50 14.41     0.270 C 
HETATM   45  C2  GAL A   3     282.316 260.558 200.926  0.50 11.27     0.241 C 
HETATM   46  O2  GAL A   3     283.477 260.288 201.684  0.50 11.99    -0.215 OA
HETATM   47  C3  GAL A   3     281.566 261.751 201.494  0.50  9.34     0.220 C 
HETATM   48  O3  GAL A   3     282.342 262.917 201.327  0.50 11.52    -0.218 OA
HETATM   49  C4  GAL A   3     280.171 261.866 200.888  0.50 10.13     0.215 C 
HETATM   50  O4  GAL A   3     280.316 262.233 199.542  0.50  7.87    -0.218 OA
HETATM   51  C5  GAL A   3     279.413 260.534 200.851  0.50 13.15     0.184 C 
HETATM   52  O5  GAL A   3     280.221 259.532 200.179  0.50 13.62    -0.326 OA
BRANCH  51  53
HETATM   53  C6  GAL A   3     278.095 260.586 200.088  0.50 18.07     0.215 C 
HETATM   54  O6  GAL A   3     278.042 259.619 199.060  0.50 13.12    -0.218 OA
ENDBRANCH  51  53
ENDBRANCH  43  44
ENDBRANCH  34  43
BRANCH  36  55
HETATM   55  C6  NGA A   2     282.055 257.906 195.488  0.50 20.58     0.215 C 
HETATM   56  O6  NGA A   2     281.868 259.299 195.388  0.50 30.49    -0.218 OA
ENDBRANCH  36  55
ENDBRANCH  31  32
ENDBRANCH   4  31
TORSDOF 15
ENDMDL
MODEL 4
REMARK VINA RESULT:      -5.7     22.276     27.285
REMARK  15 active torsions:
REMARK  status: ('A' for Active; 'I' for Inactive)
REMARK    1  A    between atoms: C3_3  and  O3_8 
REMARK    2  A    between atoms: C4_4  and  O4_9 
REMARK    3  A    between atoms: C5_5  and  C6_6 
REMARK    4  A    between atoms: O3_8  and  C2_38 
REMARK    5  A    between atoms: O4_9  and  C1_12 
REMARK    6  A    between atoms: C2_13  and  N2_20 
REMARK    7  A    between atoms: C3_14  and  O3_21 
REMARK    8  A    between atoms: C5_16  and  C6_17 
REMARK       I    between atoms: C7_18  and  N2_20 
REMARK    9  A    between atoms: O3_21  and  C1_26 
REMARK   10  A    between atoms: C5_30  and  C6_31 
REMARK   11  A    between atoms: C1_37  and  C2_38 
REMARK   12  A    between atoms: C5_41  and  N5_48 
REMARK   13  A    between atoms: C6_42  and  C7_43 
REMARK   14  A    between atoms: C7_43  and  C8_44 
REMARK   15  A    between atoms: C8_44  and  C9_45 
REMARK       I    between atoms: C10_46  and  N5_48 
ROOT
HETATM    1  C1  GAL A   1     285.806 266.335 198.070  0.50 30.86     0.178 C 
HETATM    2  C2  GAL A   1     285.204 265.072 198.689  0.50 31.03     0.211 C 
HETATM    3  C3  GAL A   1     283.849 265.317 199.322  0.50 28.77     0.181 C 
HETATM    4  C4  GAL A   1     283.880 266.543 200.230  0.50 28.47     0.177 C 
HETATM    5  C5  GAL A   1     284.600 267.708 199.604  0.50 29.35     0.178 C 
HETATM    6  O2  GAL A   1     285.182 264.072 197.686  0.50 30.41    -0.218 OA
HETATM    7  O5  GAL A   1     285.873 267.340 199.083  0.50 30.35    -0.349 OA
ENDROOT
BRANCH   3   8
HETATM    8  O3  GAL A   1     283.488 264.243 200.168  0.50 28.34    -0.324 OA
BRANCH   8   9
HETATM    9  C2  SIA A   4     282.398 263.398 199.868  0.50 28.62     0.271 C 
HETATM   10  O6  SIA A   4     282.715 262.269 199.083  0.50 31.74    -0.325 OA
HETATM   11  C6  SIA A   4     281.630 261.404 198.713  0.50 34.04     0.176 C 
HETATM   12  C5  SIA A   4     280.829 260.921 199.907  0.50 33.06     0.166 C 
HETATM   13  C4  SIA A   4     280.402 262.156 200.703  0.50 31.88     0.182 C 
HETATM   14  C3  SIA A   4     281.670 262.906 201.124  0.50 29.71     0.103 C 
HETATM   15  O4  SIA A   4     279.663 261.769 201.834  0.50 38.09    -0.221 OA
BRANCH   9  16
HETATM   16  C1  SIA A   4     281.390 264.279 199.126  0.50 27.73     0.240 C 
HETATM   17  O1A SIA A   4     281.266 264.144 197.893  0.50 31.28    -0.644 OA
HETATM   18  O1B SIA A   4     280.776 265.091 199.851  0.50 17.68    -0.644 OA
ENDBRANCH   9  16
BRANCH  11  19
HETATM   19  C7  SIA A   4     282.233 260.257 197.904  0.50 33.71     0.214 C 
HETATM   20  O7  SIA A   4     283.356 259.693 198.574  0.50 32.14    -0.218 OA
BRANCH  19  21
HETATM   21  C8  SIA A   4     282.721 260.805 196.558  0.50 34.22     0.218 C 
HETATM   22  O8  SIA A   4     281.887 260.396 195.493  0.50 31.83    -0.218 OA
BRANCH  21  23
HETATM   23  C9  SIA A   4     284.154 260.326 196.355  0.50 33.50     0.218 C 
HETATM   24  O9  SIA A   4     284.133 259.277 195.424  0.50 28.00    -0.218 OA
ENDBRANCH  21  23
ENDBRANCH  19  21
ENDBRANCH  11  19
BRANCH  12  25
HETATM   25  N5  SIA A   4     279.690 260.091 199.591  0.50 34.22    -0.235 NA
HETATM   26  C10 SIA A   4     279.552 258.820 199.970  0.50 33.32     0.252 C 
HETATM   27  C11 SIA A   4     278.244 258.168 199.455  0.50 19.88     0.100 C 
HETATM   28  O10 SIA A   4     280.490 258.326 200.640  0.50 29.43    -0.271 OA
ENDBRANCH  12  25
ENDBRANCH   8   9
ENDBRANCH   3   8
BRANCH   5  29
HETATM   29  C6  GAL A   1     284.827 268.770 200.686  0.50 30.53     0.214 C 
HETATM   30  O6  GAL A   1     284.807 270.056 200.112  0.50 33.07    -0.218 OA
ENDBRANCH   5  29
BRANCH   4  31
HETATM   31  O4  GAL A   1     284.642 266.254 201.390  0.50 31.21    -0.327 OA
BRANCH  31  32
HETATM   32  C1  NGA A   2     283.877 265.899 202.533  0.50 28.26     0.262 C 
HETATM   33  C2  NGA A   2     284.920 265.290 203.481  0.50 24.34     0.192 C 
HETATM   34  C3  NGA A   2     284.264 264.958 204.779  0.50 23.13     0.178 C 
HETATM   35  C4  NGA A   2     283.519 266.158 205.381  0.50 23.45     0.211 C 
HETATM   36  C5  NGA A   2     282.536 266.631 204.335  0.50 23.37     0.184 C 
HETATM   37  O4  NGA A   2     284.469 267.142 205.716  0.50 26.44    -0.218 OA
HETATM   38  O5  NGA A   2     283.235 267.014 203.154  0.50 27.92    -0.327 OA
BRANCH  33  39
HETATM   39  N2  NGA A   2     285.579 264.233 202.747  0.50 23.90    -0.232 NA
HETATM   40  C7  NGA A   2     286.919 264.193 202.696  0.50 22.89     0.252 C 
HETATM   41  C8  NGA A   2     287.479 263.069 201.818  0.50 21.65     0.100 C 
HETATM   42  O7  NGA A   2     287.547 265.066 203.334  0.50 27.34    -0.271 OA
ENDBRANCH  33  39
BRANCH  34  43
HETATM   43  O3  NGA A   2     285.256 264.568 205.729  0.50 19.58    -0.327 OA
BRANCH  43  44
HETATM   44  C1  GAL A   3     284.818 263.353 206.328  0.50 14.41     0.270 C 
HETATM   45  C2  GAL A   3     283.815 263.693 207.409  0.50 11.27     0.241 C 
HETATM   46  O2  GAL A   3     284.422 264.560 208.345  0.50 11.99    -0.215 OA
HETATM   47  C3  GAL A   3     283.325 262.424 208.086  0.50  9.34     0.220 C 
HETATM   48  O3  GAL A   3     282.272 262.739 208.971  0.50 11.52    -0.218 OA
HETATM   49  C4  GAL A   3     282.950 261.360 207.060  0.50 10.13     0.215 C 
HETATM   50  O4  GAL A   3     281.795 261.794 206.394  0.50  7.87    -0.218 OA
HETATM   51  C5  GAL A   3     283.997 261.187 205.954  0.50 13.15     0.184 C 
HETATM   52  O5  GAL A   3     284.270 262.472 205.336  0.50 13.62    -0.326 OA
BRANCH  51  53
HETATM   53  C6  GAL A   3     283.564 260.263 204.822  0.50 18.07     0.215 C 
HETATM   54  O6  GAL A   3     283.138 259.005 205.302  0.50 13.12    -0.218 OA
ENDBRANCH  51  53
ENDBRANCH  43  44
ENDBRANCH  34  43
BRANCH  36  55
HETATM   55  C6  NGA A   2     281.503 267.623 204.801  0.50 20.58     0.215 C 
HETATM   56  O6  NGA A   2     281.119 267.269 206.110  0.50 30.49    -0.218 OA
ENDBRANCH  36  55
ENDBRANCH  31  32
ENDBRANCH   4  31
TORSDOF 15
ENDMDL
MODEL 5
REMARK VINA RESULT:      -5.7     16.021     20.161
REMARK  15 active torsions:
REMARK  status: ('A' for Active; 'I' for Inactive)
REMARK    1  A    between atoms: C3_3  and  O3_8 
REMARK    2  A    between atoms: C4_4  and  O4_9 
REMARK    3  A    between atoms: C5_5  and  C6_6 
REMARK    4  A    between atoms: O3_8  and  C2_38 
REMARK    5  A    between atoms: O4_9  and  C1_12 
REMARK    6  A    between atoms: C2_13  and  N2_20 
REMARK    7  A    between atoms: C3_14  and  O3_21 
REMARK    8  A    between atoms: C5_16  and  C6_17 
REMARK       I    between atoms: C7_18  and  N2_20 
REMARK    9  A    between atoms: O3_21  and  C1_26 
REMARK   10  A    between atoms: C5_30  and  C6_31 
REMARK   11  A    between atoms: C1_37  and  C2_38 
REMARK   12  A    between atoms: C5_41  and  N5_48 
REMARK   13  A    between atoms: C6_42  and  C7_43 
REMARK   14  A    between atoms: C7_43  and  C8_44 
REMARK   15  A    between atoms: C8_44  and  C9_45 
REMARK       I    between atoms: C10_46  and  N5_48 
ROOT
HETATM    1  C1  GAL A   1     282.679 246.282 177.483  0.50 30.86     0.178 C 
HETATM    2  C2  GAL A   1     281.530 246.736 178.385  0.50 31.03     0.211 C 
HETATM    3  C3  GAL A   1     281.627 246.170 179.788  0.50 28.77     0.181 C 
HETATM    4  C4  GAL A   1     281.885 244.666 179.758  0.50 28.47     0.177 C 
HETATM    5  C5  GAL A   1     282.940 244.281 178.755  0.50 29.35     0.178 C 
HETATM    6  O2  GAL A   1     281.491 248.151 178.352  0.50 30.41    -0.218 OA
HETATM    7  O5  GAL A   1     282.703 244.854 177.474  0.50 30.35    -0.349 OA
ENDROOT
BRANCH   3   8
HETATM    8  O3  GAL A   1     280.399 246.319 180.475  0.50 28.34    -0.324 OA
BRANCH   8   9
HETATM    9  C2  SIA A   4     280.322 246.981 181.719  0.50 28.62     0.271 C 
HETATM   10  O6  SIA A   4     280.700 246.204 182.835  0.50 31.74    -0.325 OA
HETATM   11  C6  SIA A   4     280.594 246.820 184.127  0.50 34.04     0.176 C 
HETATM   12  C5  SIA A   4     281.340 248.138 184.214  0.50 33.06     0.166 C 
HETATM   13  C4  SIA A   4     280.855 249.017 183.059  0.50 31.88     0.182 C 
HETATM   14  C3  SIA A   4     281.143 248.275 181.750  0.50 29.71     0.103 C 
HETATM   15  O4  SIA A   4     281.523 250.253 183.079  0.50 38.09    -0.221 OA
BRANCH   9  16
HETATM   16  C1  SIA A   4     278.861 247.416 181.861  0.50 27.73     0.240 C 
HETATM   17  O1A SIA A   4     278.088 246.714 182.541  0.50 31.28    -0.644 OA
HETATM   18  O1B SIA A   4     278.569 248.464 181.246  0.50 17.68    -0.644 OA
ENDBRANCH   9  16
BRANCH  11  19
HETATM   19  C7  SIA A   4     281.086 245.796 185.149  0.50 33.71     0.214 C 
HETATM   20  O7  SIA A   4     280.767 246.204 186.476  0.50 32.14    -0.218 OA
BRANCH  19  21
HETATM   21  C8  SIA A   4     282.612 245.691 185.047  0.50 34.22     0.218 C 
HETATM   22  O8  SIA A   4     283.015 244.459 184.487  0.50 31.83    -0.218 OA
BRANCH  21  23
HETATM   23  C9  SIA A   4     283.183 245.874 186.449  0.50 33.50     0.218 C 
HETATM   24  O9  SIA A   4     284.427 246.511 186.332  0.50 28.00    -0.218 OA
ENDBRANCH  21  23
ENDBRANCH  19  21
ENDBRANCH  11  19
BRANCH  12  25
HETATM   25  N5  SIA A   4     281.224 248.832 185.474  0.50 34.22    -0.235 NA
HETATM   26  C10 SIA A   4     282.232 249.444 186.098  0.50 33.32     0.252 C 
HETATM   27  C11 SIA A   4     281.820 250.073 187.452  0.50 19.88     0.100 C 
HETATM   28  O10 SIA A   4     283.353 249.397 185.537  0.50 29.43    -0.271 OA
ENDBRANCH  12  25
ENDBRANCH   8   9
ENDBRANCH   3   8
BRANCH   5  29
HETATM   29  C6  GAL A   1     282.918 242.757 178.598  0.50 30.53     0.214 C 
HETATM   30  O6  GAL A   1     284.219 242.236 178.750  0.50 33.07    -0.218 OA
ENDBRANCH   5  29
BRANCH   4  31
HETATM   31  O4  GAL A   1     280.722 243.995 179.305  0.50 31.21    -0.327 OA
BRANCH  31  32
HETATM   32  C1  NGA A   2     279.914 243.441 180.334  0.50 28.26     0.262 C 
HETATM   33  C2  NGA A   2     279.205 242.271 179.635  0.50 24.34     0.192 C 
HETATM   34  C3  NGA A   2     278.387 241.529 180.638  0.50 23.13     0.178 C 
HETATM   35  C4  NGA A   2     279.210 241.102 181.862  0.50 23.45     0.211 C 
HETATM   36  C5  NGA A   2     279.829 242.357 182.431  0.50 23.37     0.184 C 
HETATM   37  O4  NGA A   2     280.172 240.165 181.441  0.50 26.44    -0.218 OA
HETATM   38  O5  NGA A   2     280.666 242.968 181.453  0.50 27.92    -0.327 OA
BRANCH  33  39
HETATM   39  N2  NGA A   2     278.546 242.822 178.473  0.50 23.90    -0.232 NA
HETATM   40  C7  NGA A   2     278.738 242.259 177.270  0.50 22.89     0.252 C 
HETATM   41  C8  NGA A   2     278.044 242.993 176.118  0.50 21.65     0.100 C 
HETATM   42  O7  NGA A   2     279.460 241.241 177.218  0.50 27.34    -0.271 OA
ENDBRANCH  33  39
BRANCH  34  43
HETATM   43  O3  NGA A   2     277.876 240.335 180.047  0.50 19.58    -0.327 OA
BRANCH  43  44
HETATM   44  C1  GAL A   3     276.475 240.298 180.300  0.50 14.41     0.270 C 
HETATM   45  C2  GAL A   3     276.125 238.919 180.817  0.50 11.27     0.241 C 
HETATM   46  O2  GAL A   3     276.518 237.955 179.862  0.50 11.99    -0.215 OA
HETATM   47  C3  GAL A   3     274.634 238.828 181.094  0.50  9.34     0.220 C 
HETATM   48  O3  GAL A   3     274.347 237.602 181.731  0.50 11.52    -0.218 OA
HETATM   49  C4  GAL A   3     274.142 240.042 181.877  0.50 10.13     0.215 C 
HETATM   50  O4  GAL A   3     274.679 239.964 183.170  0.50  7.87    -0.218 OA
HETATM   51  C5  GAL A   3     274.656 241.373 181.320  0.50 13.15     0.184 C 
HETATM   52  O5  GAL A   3     276.105 241.335 181.222  0.50 13.62    -0.326 OA
BRANCH  51  53
HETATM   53  C6  GAL A   3     274.330 242.582 182.188  0.50 18.07     0.215 C 
HETATM   54  O6  GAL A   3     275.494 243.276 182.585  0.50 13.12    -0.218 OA
ENDBRANCH  51  53
ENDBRANCH  43  44
ENDBRANCH  34  43
BRANCH  36  55
HETATM   55  C6  NGA A   2     280.456 242.225 183.795  0.50 20.58     0.215 C 
HETATM   56  O6  NGA A   2     280.180 240.929 184.276  0.50 30.49    -0.218 OA
ENDBRANCH  36  55
ENDBRANCH  31  32
ENDBRANCH   4  31
TORSDOF 15
ENDMDL
MODEL 6
REMARK VINA RESULT:      -5.7      9.722     13.786
REMARK  15 active torsions:
REMARK  status: ('A' for Active; 'I' for Inactive)
REMARK    1  A    between atoms: C3_3  and  O3_8 
REMARK    2  A    between atoms: C4_4  and  O4_9 
REMARK    3  A    between atoms: C5_5  and  C6_6 
REMARK    4  A    between atoms: O3_8  and  C2_38 
REMARK    5  A    between atoms: O4_9  and  C1_12 
REMARK    6  A    between atoms: C2_13  and  N2_20 
REMARK    7  A    between atoms: C3_14  and  O3_21 
REMARK    8  A    between atoms: C5_16  and  C6_17 
REMARK       I    between atoms: C7_18  and  N2_20 
REMARK    9  A    between atoms: O3_21  and  C1_26 
REMARK   10  A    between atoms: C5_30  and  C6_31 
REMARK   11  A    between atoms: C1_37  and  C2_38 
REMARK   12  A    between atoms: C5_41  and  N5_48 
REMARK   13  A    between atoms: C6_42  and  C7_43 
REMARK   14  A    between atoms: C7_43  and  C8_44 
REMARK   15  A    between atoms: C8_44  and  C9_45 
REMARK       I    between atoms: C10_46  and  N5_48 
ROOT
HETATM    1  C1  GAL A   1     270.351 252.331 189.422  0.50 30.86     0.178 C 
HETATM    2  C2  GAL A   1     271.393 253.410 189.725  0.50 31.03     0.211 C 
HETATM    3  C3  GAL A   1     271.271 253.967 191.130  0.50 28.77     0.181 C 
HETATM    4  C4  GAL A   1     269.826 254.340 191.449  0.50 28.47     0.177 C 
HETATM    5  C5  GAL A   1     268.846 253.286 191.007  0.50 29.35     0.178 C 
HETATM    6  O2  GAL A   1     272.669 252.863 189.448  0.50 30.41    -0.218 OA
HETATM    7  O5  GAL A   1     269.055 252.883 189.658  0.50 30.35    -0.349 OA
ENDROOT
BRANCH   3   8
HETATM    8  O3  GAL A   1     271.999 255.173 191.257  0.50 28.34    -0.324 OA
BRANCH   8   9
HETATM    9  C2  SIA A   4     273.114 255.278 192.115  0.50 28.62     0.271 C 
HETATM   10  O6  SIA A   4     273.868 254.093 192.262  0.50 31.74    -0.325 OA
HETATM   11  C6  SIA A   4     274.986 254.137 193.161  0.50 34.04     0.176 C 
HETATM   12  C5  SIA A   4     275.955 255.260 192.841  0.50 33.06     0.166 C 
HETATM   13  C4  SIA A   4     275.149 256.558 192.780  0.50 31.88     0.182 C 
HETATM   14  C3  SIA A   4     274.076 256.396 191.699  0.50 29.71     0.103 C 
HETATM   15  O4  SIA A   4     275.994 257.638 192.473  0.50 38.09    -0.221 OA
BRANCH   9  16
HETATM   16  C1  SIA A   4     272.548 255.703 193.472  0.50 27.73     0.240 C 
HETATM   17  O1A SIA A   4     272.466 254.856 194.382  0.50 31.28    -0.644 OA
HETATM   18  O1B SIA A   4     272.195 256.900 193.535  0.50 17.68    -0.644 OA
ENDBRANCH   9  16
BRANCH  11  19
HETATM   19  C7  SIA A   4     275.645 252.759 193.118  0.50 33.71     0.214 C 
HETATM   20  O7  SIA A   4     274.876 251.848 192.339  0.50 32.14    -0.218 OA
BRANCH  19  21
HETATM   21  C8  SIA A   4     275.721 252.204 194.545  0.50 34.22     0.218 C 
HETATM   22  O8  SIA A   4     276.922 252.577 195.188  0.50 31.83    -0.218 OA
BRANCH  21  23
HETATM   23  C9  SIA A   4     275.587 250.688 194.459  0.50 33.50     0.218 C 
HETATM   24  O9  SIA A   4     275.339 250.200 195.751  0.50 28.00    -0.218 OA
ENDBRANCH  21  23
ENDBRANCH  19  21
ENDBRANCH  11  19
BRANCH  12  25
HETATM   25  N5  SIA A   4     277.072 255.387 193.747  0.50 34.22    -0.235 NA
HETATM   26  C10 SIA A   4     278.352 255.255 193.393  0.50 33.32     0.252 C 
HETATM   27  C11 SIA A   4     279.332 255.408 194.583  0.50 19.88     0.100 C 
HETATM   28  O10 SIA A   4     278.580 254.995 192.188  0.50 29.43    -0.271 OA
ENDBRANCH  12  25
ENDBRANCH   8   9
ENDBRANCH   3   8
BRANCH   5  29
HETATM   29  C6  GAL A   1     267.433 253.874 191.106  0.50 30.53     0.214 C 
HETATM   30  O6  GAL A   1     266.475 252.871 190.857  0.50 33.07    -0.218 OA
ENDBRANCH   5  29
BRANCH   4  31
HETATM   31  O4  GAL A   1     269.456 255.485 190.700  0.50 31.21    -0.327 OA
BRANCH  31  32
HETATM   32  C1  NGA A   2     269.454 256.703 191.432  0.50 28.26     0.262 C 
HETATM   33  C2  NGA A   2     269.742 257.762 190.358  0.50 24.34     0.192 C 
HETATM   34  C3  NGA A   2     269.670 259.117 190.979  0.50 23.13     0.178 C 
HETATM   35  C4  NGA A   2     268.349 259.347 191.727  0.50 23.45     0.211 C 
HETATM   36  C5  NGA A   2     268.221 258.235 192.741  0.50 23.37     0.184 C 
HETATM   37  O4  NGA A   2     267.304 259.345 190.784  0.50 26.44    -0.218 OA
HETATM   38  O5  NGA A   2     268.208 256.974 192.076  0.50 27.92    -0.327 OA
BRANCH  33  39
HETATM   39  N2  NGA A   2     270.967 257.364 189.702  0.50 23.90    -0.232 NA
HETATM   40  C7  NGA A   2     271.006 257.275 188.364  0.50 22.89     0.252 C 
HETATM   41  C8  NGA A   2     272.340 256.765 187.810  0.50 21.65     0.100 C 
HETATM   42  O7  NGA A   2     269.973 257.588 187.734  0.50 27.34    -0.271 OA
ENDBRANCH  33  39
BRANCH  34  43
HETATM   43  O3  NGA A   2     269.748 260.113 189.960  0.50 19.58    -0.327 OA
BRANCH  43  44
HETATM   44  C1  GAL A   3     270.462 261.221 190.500  0.50 14.41     0.270 C 
HETATM   45  C2  GAL A   3     271.618 261.534 189.574  0.50 11.27     0.241 C 
HETATM   46  O2  GAL A   3     272.432 260.386 189.448  0.50 11.99    -0.215 OA
HETATM   47  C3  GAL A   3     272.418 262.707 190.115  0.50  9.34     0.220 C 
HETATM   48  O3  GAL A   3     273.385 263.095 189.164  0.50 11.52    -0.218 OA
HETATM   49  C4  GAL A   3     271.503 263.849 190.543  0.50 10.13     0.215 C 
HETATM   50  O4  GAL A   3     270.934 264.400 189.386  0.50  7.87    -0.218 OA
HETATM   51  C5  GAL A   3     270.308 263.388 191.384  0.50 13.15     0.184 C 
HETATM   52  O5  GAL A   3     269.587 262.345 190.677  0.50 13.62    -0.326 OA
BRANCH  51  53
HETATM   53  C6  GAL A   3     269.285 264.481 191.669  0.50 18.07     0.215 C 
HETATM   54  O6  GAL A   3     267.962 263.987 191.634  0.50 13.12    -0.218 OA
ENDBRANCH  51  53
ENDBRANCH  43  44
ENDBRANCH  34  43
BRANCH  36  55
HETATM   55  C6  NGA A   2     267.141 258.406 193.777  0.50 20.58     0.215 C 
HETATM   56  O6  NGA A   2     267.097 259.768 194.137  0.50 30.49    -0.218 OA
ENDBRANCH  36  55
ENDBRANCH  31  32
ENDBRANCH   4  31
TORSDOF 15
ENDMDL
MODEL 7
REMARK VINA RESULT:      -5.7     11.601     15.158
REMARK  15 active torsions:
REMARK  status: ('A' for Active; 'I' for Inactive)
REMARK    1  A    between atoms: C3_3  and  O3_8 
REMARK    2  A    between atoms: C4_4  and  O4_9 
REMARK    3  A    between atoms: C5_5  and  C6_6 
REMARK    4  A    between atoms: O3_8  and  C2_38 
REMARK    5  A    between atoms: O4_9  and  C1_12 
REMARK    6  A    between atoms: C2_13  and  N2_20 
REMARK    7  A    between atoms: C3_14  and  O3_21 
REMARK    8  A    between atoms: C5_16  and  C6_17 
REMARK       I    between atoms: C7_18  and  N2_20 
REMARK    9  A    between atoms: O3_21  and  C1_26 
REMARK   10  A    between atoms: C5_30  and  C6_31 
REMARK   11  A    between atoms: C1_37  and  C2_38 
REMARK   12  A    between atoms: C5_41  and  N5_48 
REMARK   13  A    between atoms: C6_42  and  C7_43 
REMARK   14  A    between atoms: C7_43  and  C8_44 
REMARK   15  A    between atoms: C8_44  and  C9_45 
REMARK       I    between atoms: C10_46  and  N5_48 
ROOT
HETATM    1  C1  GAL A   1     273.445 255.497 187.432  0.50 30.86     0.178 C 
HETATM    2  C2  GAL A   1     273.935 256.094 188.753  0.50 31.03     0.211 C 
HETATM    3  C3  GAL A   1     272.892 256.030 189.850  0.50 28.77     0.181 C 
HETATM    4  C4  GAL A   1     271.542 256.545 189.356  0.50 28.47     0.177 C 
HETATM    5  C5  GAL A   1     271.185 256.012 187.993  0.50 29.35     0.178 C 
HETATM    6  O2  GAL A   1     275.148 255.446 189.093  0.50 30.41    -0.218 OA
HETATM    7  O5  GAL A   1     272.244 256.171 187.056  0.50 30.35    -0.349 OA
ENDROOT
BRANCH   3   8
HETATM    8  O3  GAL A   1     273.239 256.882 190.924  0.50 28.34    -0.324 OA
BRANCH   8   9
HETATM    9  C2  SIA A   4     273.774 256.376 192.128  0.50 28.62     0.271 C 
HETATM   10  O6  SIA A   4     274.600 255.240 191.983  0.50 31.74    -0.325 OA
HETATM   11  C6  SIA A   4     275.131 254.661 193.185  0.50 34.04     0.176 C 
HETATM   12  C5  SIA A   4     275.878 255.664 194.042  0.50 33.06     0.166 C 
HETATM   13  C4  SIA A   4     274.943 256.851 194.279  0.50 31.88     0.182 C 
HETATM   14  C3  SIA A   4     274.561 257.430 192.914  0.50 29.71     0.103 C 
HETATM   15  O4  SIA A   4     275.587 257.825 195.061  0.50 38.09    -0.221 OA
BRANCH   9  16
HETATM   16  C1  SIA A   4     272.565 256.029 192.999  0.50 27.73     0.240 C 
HETATM   17  O1A SIA A   4     272.284 254.830 193.189  0.50 31.28    -0.644 OA
HETATM   18  O1B SIA A   4     271.941 257.018 193.440  0.50 17.68    -0.644 OA
ENDBRANCH   9  16
BRANCH  11  19
HETATM   19  C7  SIA A   4     276.005 253.481 192.760  0.50 33.71     0.214 C 
HETATM   20  O7  SIA A   4     277.035 253.901 191.871  0.50 32.14    -0.218 OA
BRANCH  19  21
HETATM   21  C8  SIA A   4     275.132 252.464 192.016  0.50 34.22     0.218 C 
HETATM   22  O8  SIA A   4     274.815 251.352 192.828  0.50 31.83    -0.218 OA
BRANCH  21  23
HETATM   23  C9  SIA A   4     275.888 252.036 190.762  0.50 33.50     0.218 C 
HETATM   24  O9  SIA A   4     275.052 252.253 189.656  0.50 28.00    -0.218 OA
ENDBRANCH  21  23
ENDBRANCH  19  21
ENDBRANCH  11  19
BRANCH  12  25
HETATM   25  N5  SIA A   4     276.387 255.150 195.291  0.50 34.22    -0.235 NA
HETATM   26  C10 SIA A   4     277.682 255.058 195.600  0.50 33.32     0.252 C 
HETATM   27  C11 SIA A   4     277.934 254.434 196.996  0.50 19.88     0.100 C 
HETATM   28  O10 SIA A   4     278.498 255.442 194.729  0.50 29.43    -0.271 OA
ENDBRANCH  12  25
ENDBRANCH   8   9
ENDBRANCH   3   8
BRANCH   5  29
HETATM   29  C6  GAL A   1     269.977 256.800 187.473  0.50 30.53     0.214 C 
HETATM   30  O6  GAL A   1     268.801 256.361 188.114  0.50 33.07    -0.218 OA
ENDBRANCH   5  29
BRANCH   4  31
HETATM   31  O4  GAL A   1     271.611 257.947 189.167  0.50 31.21    -0.327 OA
BRANCH  31  32
HETATM   32  C1  NGA A   2     270.908 258.715 190.134  0.50 28.26     0.262 C 
HETATM   33  C2  NGA A   2     270.229 259.806 189.294  0.50 24.34     0.192 C 
HETATM   34  C3  NGA A   2     269.365 260.638 190.182  0.50 23.13     0.178 C 
HETATM   35  C4  NGA A   2     268.377 259.790 190.996  0.50 23.45     0.211 C 
HETATM   36  C5  NGA A   2     269.198 258.779 191.763  0.50 23.37     0.184 C 
HETATM   37  O4  NGA A   2     267.473 259.188 190.102  0.50 26.44    -0.218 OA
HETATM   38  O5  NGA A   2     269.930 257.962 190.853  0.50 27.92    -0.327 OA
BRANCH  33  39
HETATM   39  N2  NGA A   2     271.275 260.457 188.537  0.50 23.90    -0.232 NA
HETATM   40  C7  NGA A   2     271.129 260.632 187.215  0.50 22.89     0.252 C 
HETATM   41  C8  NGA A   2     272.346 261.260 186.529  0.50 21.65     0.100 C 
HETATM   42  O7  NGA A   2     270.055 260.254 186.698  0.50 27.34    -0.271 OA
ENDBRANCH  33  39
BRANCH  34  43
HETATM   43  O3  NGA A   2     268.586 261.532 189.388  0.50 19.58    -0.327 OA
BRANCH  43  44
HETATM   44  C1  GAL A   3     269.006 262.856 189.700  0.50 14.41     0.270 C 
HETATM   45  C2  GAL A   3     268.076 263.410 190.758  0.50 11.27     0.241 C 
HETATM   46  O2  GAL A   3     266.750 263.373 190.272  0.50 11.99    -0.215 OA
HETATM   47  C3  GAL A   3     268.480 264.830 191.118  0.50  9.34     0.220 C 
HETATM   48  O3  GAL A   3     267.716 265.272 192.219  0.50 11.52    -0.218 OA
HETATM   49  C4  GAL A   3     269.984 264.934 191.349  0.50 10.13     0.215 C 
HETATM   50  O4  GAL A   3     270.286 264.243 192.531  0.50  7.87    -0.218 OA
HETATM   51  C5  GAL A   3     270.815 264.239 190.265  0.50 13.15     0.184 C 
HETATM   52  O5  GAL A   3     270.377 262.861 190.125  0.50 13.62    -0.326 OA
BRANCH  51  53
HETATM   53  C6  GAL A   3     272.307 264.172 190.568  0.50 18.07     0.215 C 
HETATM   54  O6  GAL A   3     273.085 264.671 189.499  0.50 13.12    -0.218 OA
ENDBRANCH  51  53
ENDBRANCH  43  44
ENDBRANCH  34  43
BRANCH  36  55
HETATM   55  C6  NGA A   2     268.471 258.019 192.841  0.50 20.58     0.215 C 
HETATM   56  O6  NGA A   2     267.635 258.925 193.524  0.50 30.49    -0.218 OA
ENDBRANCH  36  55
ENDBRANCH  31  32
ENDBRANCH   4  31
TORSDOF 15
ENDMDL
MODEL 8
REMARK VINA RESULT:      -5.6     15.207     18.159
REMARK  15 active torsions:
REMARK  status: ('A' for Active; 'I' for Inactive)
REMARK    1  A    between atoms: C3_3  and  O3_8 
REMARK    2  A    between atoms: C4_4  and  O4_9 
REMARK    3  A    between atoms: C5_5  and  C6_6 
REMARK    4  A    between atoms: O3_8  and  C2_38 
REMARK    5  A    between atoms: O4_9  and  C1_12 
REMARK    6  A    between atoms: C2_13  and  N2_20 
REMARK    7  A    between atoms: C3_14  and  O3_21 
REMARK    8  A    between atoms: C5_16  and  C6_17 
REMARK       I    between atoms: C7_18  and  N2_20 
REMARK    9  A    between atoms: O3_21  and  C1_26 
REMARK   10  A    between atoms: C5_30  and  C6_31 
REMARK   11  A    between atoms: C1_37  and  C2_38 
REMARK   12  A    between atoms: C5_41  and  N5_48 
REMARK   13  A    between atoms: C6_42  and  C7_43 
REMARK   14  A    between atoms: C7_43  and  C8_44 
REMARK   15  A    between atoms: C8_44  and  C9_45 
REMARK       I    between atoms: C10_46  and  N5_48 
ROOT
HETATM    1  C1  GAL A   1     277.371 237.894 179.437  0.50 30.86     0.178 C 
HETATM    2  C2  GAL A   1     278.245 239.145 179.325  0.50 31.03     0.211 C 
HETATM    3  C3  GAL A   1     278.135 240.048 180.538  0.50 28.77     0.181 C 
HETATM    4  C4  GAL A   1     276.676 240.296 180.908  0.50 28.47     0.177 C 
HETATM    5  C5  GAL A   1     275.849 239.039 180.873  0.50 29.35     0.178 C 
HETATM    6  O2  GAL A   1     279.569 238.720 179.059  0.50 30.41    -0.218 OA
HETATM    7  O5  GAL A   1     276.023 238.309 179.663  0.50 30.35    -0.349 OA
ENDROOT
BRANCH   3   8
HETATM    8  O3  GAL A   1     278.667 241.329 180.259  0.50 28.34    -0.324 OA
BRANCH   8   9
HETATM    9  C2  SIA A   4     279.700 241.888 181.041  0.50 28.62     0.271 C 
HETATM   10  O6  SIA A   4     279.920 243.268 180.843  0.50 31.74    -0.325 OA
HETATM   11  C6  SIA A   4     280.992 243.872 181.583  0.50 34.04     0.176 C 
HETATM   12  C5  SIA A   4     280.882 243.636 183.077  0.50 33.06     0.166 C 
HETATM   13  C4  SIA A   4     280.743 242.128 183.295  0.50 31.88     0.182 C 
HETATM   14  C3  SIA A   4     279.495 241.657 182.542  0.50 29.71     0.103 C 
HETATM   15  O4  SIA A   4     280.624 241.847 184.666  0.50 38.09    -0.221 OA
BRANCH   9  16
HETATM   16  C1  SIA A   4     280.962 241.104 180.672  0.50 27.73     0.240 C 
HETATM   17  O1A SIA A   4     281.305 240.144 181.388  0.50 31.28    -0.644 OA
HETATM   18  O1B SIA A   4     281.560 241.529 179.660  0.50 17.68    -0.644 OA
ENDBRANCH   9  16
BRANCH  11  19
HETATM   19  C7  SIA A   4     281.001 245.356 181.219  0.50 33.71     0.214 C 
HETATM   20  O7  SIA A   4     279.676 245.876 181.156  0.50 32.14    -0.218 OA
BRANCH  19  21
HETATM   21  C8  SIA A   4     281.633 245.520 179.832  0.50 34.22     0.218 C 
HETATM   22  O8  SIA A   4     282.830 244.780 179.712  0.50 31.83    -0.218 OA
BRANCH  21  23
HETATM   23  C9  SIA A   4     281.877 247.008 179.608  0.50 33.50     0.218 C 
HETATM   24  O9  SIA A   4     283.187 247.166 179.130  0.50 28.00    -0.218 OA
ENDBRANCH  21  23
ENDBRANCH  19  21
ENDBRANCH  11  19
BRANCH  12  25
HETATM   25  N5  SIA A   4     281.964 244.174 183.868  0.50 34.22    -0.235 NA
HETATM   26  C10 SIA A   4     281.804 244.980 184.919  0.50 33.32     0.252 C 
HETATM   27  C11 SIA A   4     283.145 245.430 185.552  0.50 19.88     0.100 C 
HETATM   28  O10 SIA A   4     280.626 245.285 185.223  0.50 29.43    -0.271 OA
ENDBRANCH  12  25
ENDBRANCH   8   9
ENDBRANCH   3   8
BRANCH   5  29
HETATM   29  C6  GAL A   1     274.371 239.434 180.972  0.50 30.53     0.214 C 
HETATM   30  O6  GAL A   1     273.564 238.279 181.017  0.50 33.07    -0.218 OA
ENDBRANCH   5  29
BRANCH   4  31
HETATM   31  O4  GAL A   1     276.074 241.127 179.930  0.50 31.21    -0.327 OA
BRANCH  31  32
HETATM   32  C1  NGA A   2     275.881 242.477 180.331  0.50 28.26     0.262 C 
HETATM   33  C2  NGA A   2     274.463 242.793 179.836  0.50 24.34     0.192 C 
HETATM   34  C3  NGA A   2     274.086 244.167 180.282  0.50 23.13     0.178 C 
HETATM   35  C4  NGA A   2     274.264 244.359 181.795  0.50 23.45     0.211 C 
HETATM   36  C5  NGA A   2     275.700 244.017 182.113  0.50 23.37     0.184 C 
HETATM   37  O4  NGA A   2     273.347 243.519 182.455  0.50 26.44    -0.218 OA
HETATM   38  O5  NGA A   2     275.968 242.666 181.744  0.50 27.92    -0.327 OA
BRANCH  33  39
HETATM   39  N2  NGA A   2     274.440 242.492 178.422  0.50 23.90    -0.232 NA
HETATM   40  C7  NGA A   2     273.485 241.690 177.928  0.50 22.89     0.252 C 
HETATM   41  C8  NGA A   2     273.630 241.393 176.432  0.50 21.65     0.100 C 
HETATM   42  O7  NGA A   2     272.619 241.267 178.723  0.50 27.34    -0.271 OA
ENDBRANCH  33  39
BRANCH  34  43
HETATM   43  O3  NGA A   2     272.708 244.401 179.993  0.50 19.58    -0.327 OA
BRANCH  43  44
HETATM   44  C1  GAL A   3     272.625 245.626 179.272  0.50 14.41     0.270 C 
HETATM   45  C2  GAL A   3     271.490 245.512 178.277  0.50 11.27     0.241 C 
HETATM   46  O2  GAL A   3     271.731 244.409 177.427  0.50 11.99    -0.215 OA
HETATM   47  C3  GAL A   3     271.368 246.796 177.474  0.50  9.34     0.220 C 
HETATM   48  O3  GAL A   3     270.208 246.742 176.673  0.50 11.52    -0.218 OA
HETATM   49  C4  GAL A   3     271.416 248.021 178.381  0.50 10.13     0.215 C 
HETATM   50  O4  GAL A   3     270.234 248.042 179.136  0.50  7.87    -0.218 OA
HETATM   51  C5  GAL A   3     272.542 247.966 179.419  0.50 13.15     0.184 C 
HETATM   52  O5  GAL A   3     272.449 246.729 180.174  0.50 13.62    -0.326 OA
BRANCH  51  53
HETATM   53  C6  GAL A   3     272.498 249.087 180.450  0.50 18.07     0.215 C 
HETATM   54  O6  GAL A   3     272.339 250.354 179.845  0.50 13.12    -0.218 OA
ENDBRANCH  51  53
ENDBRANCH  43  44
ENDBRANCH  34  43
BRANCH  36  55
HETATM   55  C6  NGA A   2     276.180 244.395 183.490  0.50 20.58     0.215 C 
HETATM   56  O6  NGA A   2     277.582 244.536 183.438  0.50 30.49    -0.218 OA
ENDBRANCH  36  55
ENDBRANCH  31  32
ENDBRANCH   4  31
TORSDOF 15
ENDMDL
MODEL 9
REMARK VINA RESULT:      -5.6     15.159     19.049
REMARK  15 active torsions:
REMARK  status: ('A' for Active; 'I' for Inactive)
REMARK    1  A    between atoms: C3_3  and  O3_8 
REMARK    2  A    between atoms: C4_4  and  O4_9 
REMARK    3  A    between atoms: C5_5  and  C6_6 
REMARK    4  A    between atoms: O3_8  and  C2_38 
REMARK    5  A    between atoms: O4_9  and  C1_12 
REMARK    6  A    between atoms: C2_13  and  N2_20 
REMARK    7  A    between atoms: C3_14  and  O3_21 
REMARK    8  A    between atoms: C5_16  and  C6_17 
REMARK       I    between atoms: C7_18  and  N2_20 
REMARK    9  A    between atoms: O3_21  and  C1_26 
REMARK   10  A    between atoms: C5_30  and  C6_31 
REMARK   11  A    between atoms: C1_37  and  C2_38 
REMARK   12  A    between atoms: C5_41  and  N5_48 
REMARK   13  A    between atoms: C6_42  and  C7_43 
REMARK   14  A    between atoms: C7_43  and  C8_44 
REMARK   15  A    between atoms: C8_44  and  C9_45 
REMARK       I    between atoms: C10_46  and  N5_48 
ROOT
HETATM    1  C1  GAL A   1     281.501 245.860 184.706  0.50 30.86     0.178 C 
HETATM    2  C2  GAL A   1     281.298 244.708 183.719  0.50 31.03     0.211 C 
HETATM    3  C3  GAL A   1     280.632 245.150 182.431  0.50 28.77     0.181 C 
HETATM    4  C4  GAL A   1     279.396 245.999 182.714  0.50 28.47     0.177 C 
HETATM    5  C5  GAL A   1     279.636 247.029 183.786  0.50 29.35     0.178 C 
HETATM    6  O2  GAL A   1     282.555 244.089 183.518  0.50 30.41    -0.218 OA
HETATM    7  O5  GAL A   1     280.233 246.468 184.951  0.50 30.35    -0.349 OA
ENDROOT
BRANCH   3   8
HETATM    8  O3  GAL A   1     280.152 244.034 181.706  0.50 28.34    -0.324 OA
BRANCH   8   9
HETATM    9  C2  SIA A   4     280.677 243.691 180.442  0.50 28.62     0.271 C 
HETATM   10  O6  SIA A   4     281.825 244.416 180.055  0.50 31.74    -0.325 OA
HETATM   11  C6  SIA A   4     282.368 244.135 178.756  0.50 34.04     0.176 C 
HETATM   12  C5  SIA A   4     282.665 242.662 178.548  0.50 33.06     0.166 C 
HETATM   13  C4  SIA A   4     281.388 241.886 178.874  0.50 31.88     0.182 C 
HETATM   14  C3  SIA A   4     281.004 242.198 180.323  0.50 29.71     0.103 C 
HETATM   15  O4  SIA A   4     281.606 240.507 178.712  0.50 38.09    -0.221 OA
BRANCH   9  16
HETATM   16  C1  SIA A   4     279.543 243.945 179.445  0.50 27.73     0.240 C 
HETATM   17  O1A SIA A   4     278.807 242.995 179.116  0.50 31.28    -0.644 OA
HETATM   18  O1B SIA A   4     279.472 245.121 179.029  0.50 17.68    -0.644 OA
ENDBRANCH   9  16
BRANCH  11  19
HETATM   19  C7  SIA A   4     283.606 245.015 178.593  0.50 33.71     0.214 C 
HETATM   20  O7  SIA A   4     284.584 244.712 179.583  0.50 32.14    -0.218 OA
BRANCH  19  21
HETATM   21  C8  SIA A   4     283.196 246.481 178.777  0.50 34.22     0.218 C 
HETATM   22  O8  SIA A   4     282.209 246.869 177.844  0.50 31.83    -0.218 OA
BRANCH  21  23
HETATM   23  C9  SIA A   4     284.453 247.334 178.639  0.50 33.50     0.218 C 
HETATM   24  O9  SIA A   4     284.167 248.613 179.139  0.50 28.00    -0.218 OA
ENDBRANCH  21  23
ENDBRANCH  19  21
ENDBRANCH  11  19
BRANCH  12  25
HETATM   25  N5  SIA A   4     283.163 242.312 177.239  0.50 34.22    -0.235 NA
HETATM   26  C10 SIA A   4     284.365 241.784 177.003  0.50 33.32     0.252 C 
HETATM   27  C11 SIA A   4     284.642 241.545 175.497  0.50 19.88     0.100 C 
HETATM   28  O10 SIA A   4     285.103 241.592 177.999  0.50 29.43    -0.271 OA
ENDBRANCH  12  25
ENDBRANCH   8   9
ENDBRANCH   3   8
BRANCH   5  29
HETATM   29  C6  GAL A   1     278.282 247.622 184.193  0.50 30.53     0.214 C 
HETATM   30  O6  GAL A   1     278.132 247.565 185.593  0.50 33.07    -0.218 OA
ENDBRANCH   5  29
BRANCH   4  31
HETATM   31  O4  GAL A   1     278.371 245.181 183.250  0.50 31.21    -0.327 OA
BRANCH  31  32
HETATM   32  C1  NGA A   2     277.286 244.929 182.368  0.50 28.26     0.262 C 
HETATM   33  C2  NGA A   2     276.651 243.654 182.944  0.50 24.34     0.192 C 
HETATM   34  C3  NGA A   2     275.423 243.326 182.162  0.50 23.13     0.178 C 
HETATM   35  C4  NGA A   2     274.449 244.510 182.080  0.50 23.45     0.211 C 
HETATM   36  C5  NGA A   2     275.220 245.670 181.493  0.50 23.37     0.184 C 
HETATM   37  O4  NGA A   2     273.972 244.778 183.376  0.50 26.44    -0.218 OA
HETATM   38  O5  NGA A   2     276.327 245.988 182.333  0.50 27.92    -0.327 OA
BRANCH  33  39
HETATM   39  N2  NGA A   2     277.705 242.668 183.026  0.50 23.90    -0.232 NA
HETATM   40  C7  NGA A   2     278.138 242.256 184.227  0.50 22.89     0.252 C 
HETATM   41  C8  NGA A   2     279.310 241.272 184.166  0.50 21.65     0.100 C 
HETATM   42  O7  NGA A   2     277.568 242.722 185.237  0.50 27.34    -0.271 OA
ENDBRANCH  33  39
BRANCH  34  43
HETATM   43  O3  NGA A   2     274.723 242.258 182.800  0.50 19.58    -0.327 OA
BRANCH  43  44
HETATM   44  C1  GAL A   3     275.020 241.065 182.083  0.50 14.41     0.270 C 
HETATM   45  C2  GAL A   3     274.615 239.885 182.941  0.50 11.27     0.241 C 
HETATM   46  O2  GAL A   3     275.305 239.952 184.172  0.50 11.99    -0.215 OA
HETATM   47  C3  GAL A   3     274.924 238.584 182.219  0.50  9.34     0.220 C 
HETATM   48  O3  GAL A   3     274.390 237.502 182.951  0.50 11.52    -0.218 OA
HETATM   49  C4  GAL A   3     274.441 238.627 180.773  0.50 10.13     0.215 C 
HETATM   50  O4  GAL A   3     273.039 238.621 180.788  0.50  7.87    -0.218 OA
HETATM   51  C5  GAL A   3     274.820 239.921 180.044  0.50 13.15     0.184 C 
HETATM   52  O5  GAL A   3     274.356 241.065 180.810  0.50 13.62    -0.326 OA
BRANCH  51  53
HETATM   53  C6  GAL A   3     274.196 240.065 178.662  0.50 18.07     0.215 C 
HETATM   54  O6  GAL A   3     274.472 238.951 177.839  0.50 13.12    -0.218 OA
ENDBRANCH  51  53
ENDBRANCH  43  44
ENDBRANCH  34  43
BRANCH  36  55
HETATM   55  C6  NGA A   2     274.401 246.858 181.063  0.50 20.58     0.215 C 
HETATM   56  O6  NGA A   2     273.180 246.379 180.546  0.50 30.49    -0.218 OA
ENDBRANCH  36  55
ENDBRANCH  31  32
ENDBRANCH   4  31
TORSDOF 15
ENDMDL
